# Name: Z3N
# Created by ModelServer 0.9.9

# model_server_result.job_id: K561VyS3ErIt21n0n0cChg
# model_server_result.datetime_utc: 2023-07-29 21:43:15
# model_server_result.server_version: 0.9.9
# model_server_result.query_name: ligand
# model_server_result.source_id: pdb-bcif
# model_server_result.entry_id: 8gcy

# model_server_params.name: atom_site
# model_server_params.value: {"label_asym_id":"D","auth_seq_id":503}

# model_server_stats.io_time_ms: 44
# model_server_stats.parse_time_ms: 78
# model_server_stats.create_model_time_ms: 7
# model_server_stats.query_time_ms: 290
# model_server_stats.encode_time_ms: 0
# model_server_stats.element_count: 39

@<TRIPOS>MOLECULE
Z3N
39 44 1
****
****

@<TRIPOS>ATOM
1 O1 2.484 8.748 17.159 O.2 1 Z3N 0.000
2 C2 2.078 8.745 18.304 C.2 1 Z3N 0.000
3 N3 2.353 7.767 19.270 N.am 1 Z3N 0.000
4 C4 3.168 6.611 19.087 C.ar 1 Z3N 0.000
5 C5 2.917 5.417 19.769 C.ar 1 Z3N 0.000
6 C6 3.726 4.313 19.538 C.ar 1 Z3N 0.000
7 C7 4.779 4.391 18.638 C.ar 1 Z3N 0.000
8 C8 5.042 5.578 17.947 C.ar 1 Z3N 0.000
9 C9 6.170 5.706 16.909 C.3 1 Z3N 0.000
10 C10 7.150 6.743 17.426 C.ar 1 Z3N 0.000
11 N11 7.391 7.882 16.834 N.ar 1 Z3N 0.000
12 N12 8.322 8.547 17.611 N.ar 1 Z3N 0.000
13 C13 8.594 7.777 18.628 C.ar 1 Z3N 0.000
14 N14 7.893 6.642 18.561 N.ar 1 Z3N 0.000
15 C15 7.935 5.550 19.524 C.3 1 Z3N 0.000
16 C16 5.591 5.990 15.474 C.3 1 Z3N 0.000
17 C17 5.701 4.463 15.204 C.3 1 Z3N 0.000
18 C18 6.137 4.017 13.812 C.3 1 Z3N 0.000
19 C19 6.773 4.422 16.327 C.3 1 Z3N 0.000
20 C20 4.230 6.680 18.187 C.ar 1 Z3N 0.000
21 C21 1.703 8.048 20.551 C.3 1 Z3N 0.000
22 C22 0.967 9.325 20.264 C.ar 1 Z3N 0.000
23 C23 0.115 10.073 21.081 C.ar 1 Z3N 0.000
24 C24 -0.230 9.613 22.466 C.3 1 Z3N 0.000
25 F25 0.820 9.419 23.183 F 1 Z3N 0.000
26 F26 -0.978 10.469 23.073 F 1 Z3N 0.000
27 F27 -0.844 8.465 22.483 F 1 Z3N 0.000
28 C28 -0.448 11.247 20.570 C.ar 1 Z3N 0.000
29 C29 -0.216 11.660 19.247 C.ar 1 Z3N 0.000
30 C30 -0.961 12.837 18.670 C.3 1 Z3N 0.000
31 N31 -2.304 12.471 18.066 N.3 1 Z3N 0.000
32 C32 -2.215 11.498 16.923 C.3 1 Z3N 0.000
33 C33 -3.554 11.247 16.255 C.3 1 Z3N 0.000
34 C34 -3.424 10.244 15.116 C.3 1 Z3N 0.000
35 C35 -4.579 10.799 17.296 C.3 1 Z3N 0.000
36 C36 -4.670 11.786 18.460 C.3 1 Z3N 0.000
37 C37 -3.312 12.015 19.093 C.3 1 Z3N 0.000
38 C38 0.630 10.893 18.449 C.ar 1 Z3N 0.000
39 C39 1.193 9.731 18.963 C.ar 1 Z3N 0.000
@<TRIPOS>BOND
1 1 2 2
2 2 39 1
3 2 3 1
4 3 4 1
5 3 21 1
6 4 20 ar
7 4 5 ar
8 5 6 ar
9 6 7 ar
10 7 8 ar
11 8 9 1
12 8 20 ar
13 9 16 1
14 9 19 1
15 9 10 1
16 10 11 ar
17 10 14 ar
18 11 12 ar
19 12 13 ar
20 13 14 ar
21 14 15 1
22 16 17 1
23 17 18 1
24 17 19 1
25 21 22 1
26 22 39 ar
27 22 23 ar
28 23 28 ar
29 23 24 1
30 24 27 1
31 24 26 1
32 24 25 1
33 28 29 ar
34 29 38 ar
35 29 30 1
36 30 31 1
37 31 32 1
38 31 37 1
39 32 33 1
40 33 34 1
41 33 35 1
42 35 36 1
43 36 37 1
44 38 39 ar
@<TRIPOS>SUBSTRUCTURE
1 Z3N 1
