
     RDKit          3D

 26 29  0  0  1  0  0  0  0  0999 V2000
    5.0120    3.7200   15.5560 C   0  0  0  0  0  0  0  0  0  0  0  0
    5.3550    5.0660   16.1900 C   0  0  2  0  0  0  0  0  0  0  0  0
    7.1560    5.0450   16.3020 S   0  0  0  0  0  0  0  0  0  0  0  0
    7.4850    6.4570   17.2040 C   0  0  0  0  0  0  0  0  0  0  0  0
    7.3120    7.6930   16.8060 N   0  0  0  0  0  0  0  0  0  0  0  0
    7.9680    8.4990   17.6960 N   0  0  0  0  0  0  0  0  0  0  0  0
    8.4760    7.7270   18.6280 C   0  0  0  0  0  0  0  0  0  0  0  0
    8.1020    6.4380   18.4150 N   0  0  0  0  0  0  0  0  0  0  0  0
    8.3140    5.3170   19.2900 C   0  0  0  0  0  0  0  0  0  0  0  0
    4.6330    5.2580   17.5100 C   0  0  0  0  0  0  0  0  0  0  0  0
    4.6290    4.2530   18.4810 C   0  0  0  0  0  0  0  0  0  0  0  0
    3.8420    4.3870   19.6160 C   0  0  0  0  0  0  0  0  0  0  0  0
    3.0910    5.5460   19.8310 C   0  0  0  0  0  0  0  0  0  0  0  0
    3.0940    6.5840   18.8950 C   0  0  0  0  0  0  0  0  0  0  0  0
    2.2720    7.7070   19.1880 N   0  0  0  0  0  0  0  0  0  0  0  0
    1.9810    8.7770   18.3520 C   0  0  0  0  0  0  0  0  0  0  0  0
    2.3740    8.8640   17.1830 O   0  0  0  0  0  0  0  0  0  0  0  0
    1.0850    9.8840   18.9430 C   0  0  1  0  0  0  0  0  0  0  0  0
    1.4890   11.3860   18.6610 C   0  0  0  0  0  0  0  0  0  0  0  0
   -0.0140   11.5700   19.0630 C   0  0  1  0  0  0  0  0  0  0  0  0
   -0.7080   12.8620   18.7530 C   0  0  0  0  0  0  0  0  0  0  0  0
   -2.1790   12.7480   18.8800 N   0  0  0  0  0  0  0  0  0  0  0  0
   -0.2260   10.2990   18.1710 C   0  0  0  0  0  0  0  0  0  0  0  0
   -0.1410   11.1250   20.4430 O   0  0  0  0  0  0  0  0  0  0  0  0
    0.6300    9.9000   20.4200 C   0  0  0  0  0  0  0  0  0  0  0  0
    3.8790    6.4310   17.7430 C   0  0  0  0  0  0  0  0  0  0  0  0
  2  1  1  1
  2  3  1  0
  2 10  1  0
  3  4  1  0
  4  5  2  0
  4  8  1  0
  5  6  1  0
  6  7  2  0
  7  8  1  0
  8  9  1  0
 10 11  2  0
 10 26  1  0
 11 12  1  0
 12 13  2  0
 13 14  1  0
 14 15  1  0
 14 26  2  0
 15 16  1  0
 16 17  2  0
 18 16  1  6
 18 19  1  0
 18 23  1  0
 18 25  1  0
 19 20  1  0
 20 21  1  6
 20 23  1  0
 20 24  1  0
 21 22  1  0
 24 25  1  0
M  CHG  1  22   1
M  END
>  <rseq>  (1) 
1

>  <mseq>  (1) 
18

>  <S>  (1) 
-8.8391418

>  <rmsd_refine>  (1) 
1.31424

>  <E_conf>  (1) 
-48.406628

>  <E_place>  (1) 
-128.69194

>  <E_score1>  (1) 
-11.083066

>  <E_refine>  (1) 
-24.076677

>  <E_score2>  (1) 
-8.8391418

>  <Code>  (1) 
Z4194910272

>  <LOGP>  (1) 
1.0030479

>  <MW>  (1) 
373.48001

>  <TPSA>  (1) 
95.059998

>  <FSP3>  (1) 
0.5

>  <HBD>  (1) 
2

>  <HBA>  (1) 
5

>  <ROTB>  (1) 
6

>  <%C>  (1) 
98.09227

>  <PLIF_pronum>  (1) 
1

>  <PLIF_raw>  (1) 
[[22,6,17,22,4,4,4,4,4,4,8,8,8,8,8,8,7,7,7,7,7,7,6,6,6,6,6,6,5,5,5,5,5,5],[3848,6105,3751,3848,5125,5127,5130,5132,5122,5123,5125,5127,5130,5132,5122,5123,5125,5127,5130,5132,5122,5123,5125,5127,5130,5132,5122,5123,5125,5127,5130,5132,5122,5123],[268,220010,263,268,363,363,363,363,363,363,363,363,363,363,363,363,363,363,363,363,363,363,363,363,363,363,363,363,363,363,363,363,363,363],[1,6,4,7,10,10,10,10,10,10,10,10,10,10,10,10,10,10,10,10,10,10,10,10,10,10,10,10,10,10,10,10,10,10],[16.2,3.1,4.8,5.441561125,1e-005,1e-005,1e-005,1e-005,1e-005,1e-005,1e-005,1e-005,1e-005,1e-005,1e-005,1e-005,1e-005,1e-005,1e-005,1e-005,1e-005,1e-005,1e-005,1e-005,1e-005,1e-005,1e-005,1e-005,1e-005,1e-005,1e-005,1e-005,1e-005,1e-005]]

>  <FP:PLIF>  (1) 
8 9 1 2 3 4 5 7

>  <PLIF_ligidx>  (1) 
[17,17,22,22,22,22,6,6]

$$$$

     RDKit          3D

 28 31  0  0  0  0  0  0  0  0999 V2000
    2.0420    8.4310   17.7110 O   0  0  0  0  0  0  0  0  0  0  0  0
    2.2050    7.8790   18.7940 C   0  0  0  0  0  0  0  0  0  0  0  0
    1.7440    8.3090   20.0290 N   0  0  0  0  0  0  0  0  0  0  0  0
    0.9780    9.4700   20.3010 C   0  0  0  0  0  0  0  0  0  0  0  0
    0.6620    9.7160   21.6440 C   0  0  0  0  0  0  0  0  0  0  0  0
   -0.0500   10.8580   22.0090 C   0  0  0  0  0  0  0  0  0  0  0  0
   -0.4590   11.7660   21.0340 C   0  0  0  0  0  0  0  0  0  0  0  0
   -0.1760   11.5330   19.6810 C   0  0  0  0  0  0  0  0  0  0  0  0
   -0.6550   12.4950   18.6180 C   0  0  0  0  0  0  0  0  0  0  0  0
   -2.0670   12.2770   18.0920 N   0  0  0  0  0  0  0  0  0  0  0  0
   -3.1310   12.4890   19.1380 C   0  0  0  0  0  0  0  0  0  0  0  0
   -4.5190   12.4020   18.5230 C   0  0  0  0  0  0  0  0  0  0  0  0
   -4.7090   11.1260   17.7180 C   0  0  0  0  0  0  0  0  0  0  0  0
   -3.6010   10.9420   16.6880 C   0  0  0  0  0  0  0  0  0  0  0  0
   -2.2300   10.9810   17.3440 C   0  0  0  0  0  0  0  0  0  0  0  0
    0.5480   10.3800   19.3270 C   0  0  0  0  0  0  0  0  0  0  0  0
    3.0150    6.6290   18.8190 C   0  0  0  0  0  0  0  0  0  0  0  0
    2.7960    5.6010   19.7370 C   0  0  0  0  0  0  0  0  0  0  0  0
    3.5920    4.4510   19.6890 C   0  0  0  0  0  0  0  0  0  0  0  0
    4.6340    4.3340   18.7750 C   0  0  0  0  0  0  0  0  0  0  0  0
    4.8670    5.3570   17.8580 C   0  0  0  0  0  0  0  0  0  0  0  0
    6.0590    5.3030   16.9450 C   0  0  0  0  0  0  0  0  0  0  0  0
    7.0200    6.2890   17.3910 N   0  0  0  0  0  0  0  0  0  0  0  0
    7.9100    6.1880   18.4140 C   0  0  0  0  0  0  0  0  0  0  0  0
    8.4620    7.4430   18.4720 C   0  0  0  0  0  0  0  0  0  0  0  0
    7.9470    8.2250   17.4810 N   0  0  0  0  0  0  0  0  0  0  0  0
    7.0710    7.4970   16.8070 N   0  0  0  0  0  0  0  0  0  0  0  0
    4.0310    6.4860   17.8660 C   0  0  0  0  0  0  0  0  0  0  0  0
  1  2  2  0
  2  3  1  0
  2 17  1  0
  3  4  1  0
  4  5  2  0
  4 16  1  0
  5  6  1  0
  6  7  2  0
  7  8  1  0
  8  9  1  0
  8 16  2  0
  9 10  1  0
 10 11  1  0
 10 15  1  0
 11 12  1  0
 12 13  1  0
 13 14  1  0
 14 15  1  0
 17 18  2  0
 17 28  1  0
 18 19  1  0
 19 20  2  0
 20 21  1  0
 21 22  1  0
 21 28  2  0
 22 23  1  0
 23 24  1  0
 23 27  1  0
 24 25  2  0
 25 26  1  0
 26 27  2  0
M  CHG  1  10   1
M  END
>  <rseq>  (2) 
1

>  <mseq>  (2) 
1

>  <S>  (2) 
-8.4409819

>  <rmsd_refine>  (2) 
1.1479651

>  <E_conf>  (2) 
-28.379364

>  <E_place>  (2) 
-109.40944

>  <E_score1>  (2) 
-12.59124

>  <E_refine>  (2) 
-26.255299

>  <E_score2>  (2) 
-8.4409819

>  <Code>  (2) 
Z2621742679

>  <LOGP>  (2) 
3.628351

>  <MW>  (2) 
375.47601

>  <TPSA>  (2) 
63.049999

>  <FSP3>  (2) 
0.31818181

>  <HBD>  (2) 
1

>  <HBA>  (2) 
4

>  <ROTB>  (2) 
6

>  <%C>  (2) 
99.096474

>  <PLIF_pronum>  (2) 
1

>  <PLIF_raw>  (2) 
[[10,10,26,10,10,23,23,23,23,23,23,27,27,27,27,27,27,26,26,26,26,26,26,25,25,25,25,25,25,24,24,24,24,24,24],[3848,3849,6105,3848,3849,5125,5127,5130,5132,5122,5123,5125,5127,5130,5132,5122,5123,5125,5127,5130,5132,5122,5123,5125,5127,5130,5132,5122,5123,5125,5127,5130,5132,5122,5123],[268,268,220010,268,268,363,363,363,363,363,363,363,363,363,363,363,363,363,363,363,363,363,363,363,363,363,363,363,363,363,363,363,363,363,363],[1,1,6,7,7,10,10,10,10,10,10,10,10,10,10,10,10,10,10,10,10,10,10,10,10,10,10,10,10,10,10,10,10,10,10],[8.8,0.9,1.4,4.5166569,1.349364177,1e-005,1e-005,1e-005,1e-005,1e-005,1e-005,1e-005,1e-005,1e-005,1e-005,1e-005,1e-005,1e-005,1e-005,1e-005,1e-005,1e-005,1e-005,1e-005,1e-005,1e-005,1e-005,1e-005,1e-005,1e-005,1e-005,1e-005,1e-005,1e-005,1e-005]]

>  <FP:PLIF>  (2) 
1 2 3 4 5

>  <PLIF_ligidx>  (2) 
[[10,10],10,[10,10],10,26]

$$$$

     RDKit          3D

 29 32  0  0  1  0  0  0  0  0999 V2000
   -6.3980   13.6210   21.3690 C   0  0  0  0  0  0  0  0  0  0  0  0
   -5.4430   13.5190   20.1820 C   0  0  2  0  0  0  0  0  0  0  0  0
   -5.8270   12.3420   19.2810 C   0  0  0  0  0  0  0  0  0  0  0  0
   -4.8510   12.1980   18.1200 C   0  0  0  0  0  0  0  0  0  0  0  0
   -3.4090   12.0820   18.5940 C   0  0  0  0  0  0  0  0  0  0  0  0
   -3.0620   13.2380   19.5040 N   0  0  2  0  0  0  0  0  0  0  0  0
   -1.5940   13.3410   19.9070 C   0  0  0  0  0  0  0  0  0  0  0  0
   -0.7510   12.0970   19.8400 C   0  0  0  0  0  0  0  0  0  0  0  0
   -0.0010   11.8360   18.6880 C   0  0  0  0  0  0  0  0  0  0  0  0
    0.7800   10.6830   18.5830 C   0  0  0  0  0  0  0  0  0  0  0  0
    0.8310    9.7580   19.6280 C   0  0  0  0  0  0  0  0  0  0  0  0
    1.5890    8.5580   19.5840 N   0  0  0  0  0  0  0  0  0  0  0  0
    2.2810    8.0650   18.4850 C   0  0  0  0  0  0  0  0  0  0  0  0
    2.3370    8.5810   17.3720 O   0  0  0  0  0  0  0  0  0  0  0  0
    3.0300    6.7910   18.6770 C   0  0  0  0  0  0  0  0  0  0  0  0
    2.7170    5.8470   19.6520 C   0  0  0  0  0  0  0  0  0  0  0  0
    3.4660    4.6680   19.7320 C   0  0  0  0  0  0  0  0  0  0  0  0
    4.5560    4.4360   18.8970 C   0  0  0  0  0  0  0  0  0  0  0  0
    4.8880    5.3740   17.9280 C   0  0  0  0  0  0  0  0  0  0  0  0
    6.1240    5.2060   17.0900 C   0  0  0  0  0  0  0  0  0  0  0  0
    7.0790    6.2230   17.4740 N   0  0  0  0  0  0  0  0  0  0  0  0
    7.9440    6.2070   18.5230 C   0  0  0  0  0  0  0  0  0  0  0  0
    8.4860    7.4680   18.4990 C   0  0  0  0  0  0  0  0  0  0  0  0
    7.9950    8.1670   17.4370 N   0  0  0  0  0  0  0  0  0  0  0  0
    7.1470    7.3790   16.7940 N   0  0  0  0  0  0  0  0  0  0  0  0
    4.0960    6.5280   17.8030 C   0  0  0  0  0  0  0  0  0  0  0  0
    0.0950   10.0250   20.7910 C   0  0  0  0  0  0  0  0  0  0  0  0
   -0.6940   11.1800   20.8950 C   0  0  0  0  0  0  0  0  0  0  0  0
   -3.9990   13.3990   20.6730 C   0  0  0  0  0  0  0  0  0  0  0  0
  2  1  1  1
  2  3  1  0
  2 29  1  0
  3  4  1  0
  4  5  1  0
  5  6  1  0
  6  7  1  1
  6 29  1  0
  7  8  1  0
  8  9  2  0
  8 28  1  0
  9 10  1  0
 10 11  2  0
 11 12  1  0
 11 27  1  0
 12 13  1  0
 13 14  2  0
 13 15  1  0
 15 16  2  0
 15 26  1  0
 16 17  1  0
 17 18  2  0
 18 19  1  0
 19 20  1  0
 19 26  2  0
 20 21  1  0
 21 22  1  0
 21 25  1  0
 22 23  2  0
 23 24  1  0
 24 25  2  0
 27 28  2  0
M  CHG  1   6   1
M  END
>  <rseq>  (3) 
1

>  <mseq>  (3) 
19

>  <S>  (3) 
-8.3128557

>  <rmsd_refine>  (3) 
0.76890635

>  <E_conf>  (3) 
-15.650887

>  <E_place>  (3) 
-110.69837

>  <E_score1>  (3) 
-12.063282

>  <E_refine>  (3) 
-27.665565

>  <E_score2>  (3) 
-8.3128557

>  <Code>  (3) 
Z2622538469

>  <LOGP>  (3) 
3.9933236

>  <MW>  (3) 
389.50299

>  <TPSA>  (3) 
63.049999

>  <FSP3>  (3) 
0.34782609

>  <HBD>  (3) 
1

>  <HBA>  (3) 
4

>  <ROTB>  (3) 
6

>  <%C>  (3) 
99.384918

>  <PLIF_pronum>  (3) 
1

>  <PLIF_raw>  (3) 
[[6,14,24,25,6,21,21,21,21,21,21,25,25,25,25,25,25,24,24,24,24,24,24,23,23,23,23,23,23,22,22,22,22,22,22],[3848,3751,6105,3716,3848,5125,5127,5130,5132,5122,5123,5125,5127,5130,5132,5122,5123,5125,5127,5130,5132,5122,5123,5125,5127,5130,5132,5122,5123,5125,5127,5130,5132,5122,5123],[268,263,220010,260,268,363,363,363,363,363,363,363,363,363,363,363,363,363,363,363,363,363,363,363,363,363,363,363,363,363,363,363,363,363,363],[1,4,6,2,7,10,10,10,10,10,10,10,10,10,10,10,10,10,10,10,10,10,10,10,10,10,10,10,10,10,10,10,10,10,10],[12.5,3,1.1,0.6,5.817567989,1e-005,1e-005,1e-005,1e-005,1e-005,1e-005,1e-005,1e-005,1e-005,1e-005,1e-005,1e-005,1e-005,1e-005,1e-005,1e-005,1e-005,1e-005,1e-005,1e-005,1e-005,1e-005,1e-005,1e-005,1e-005,1e-005,1e-005,1e-005,1e-005,1e-005]]

>  <FP:PLIF>  (3) 
11 8 9 1 2 3 4 5

>  <PLIF_ligidx>  (3) 
[25,14,14,6,6,6,6,24]

$$$$

     RDKit          3D

 29 32  0  0  0  0  0  0  0  0999 V2000
    6.5950    4.2380   16.4850 C   0  0  0  0  0  0  0  0  0  0  0  0
    5.9380    5.5980   16.8200 C   0  0  0  0  0  0  0  0  0  0  0  0
    5.4000    6.1040   15.4580 C   0  0  0  0  0  0  0  0  0  0  0  0
    4.7940    5.4940   17.8470 C   0  0  0  0  0  0  0  0  0  0  0  0
    4.6320    4.3670   18.6610 C   0  0  0  0  0  0  0  0  0  0  0  0
    3.6600    4.3470   19.6560 C   0  0  0  0  0  0  0  0  0  0  0  0
    2.8460    5.4580   19.8770 C   0  0  0  0  0  0  0  0  0  0  0  0
    2.9660    6.5930   19.0760 C   0  0  0  0  0  0  0  0  0  0  0  0
    2.1020    7.6790   19.3680 N   0  0  0  0  0  0  0  0  0  0  0  0
    1.9270    8.8360   18.6210 C   0  0  0  0  0  0  0  0  0  0  0  0
    2.4410    9.0590   17.5290 O   0  0  0  0  0  0  0  0  0  0  0  0
    0.9730    9.8590   19.1640 C   0  0  0  0  0  0  0  0  0  0  0  0
    0.2580    9.7070   20.3560 C   0  0  0  0  0  0  0  0  0  0  0  0
   -0.7060   10.6520   20.7260 C   0  0  0  0  0  0  0  0  0  0  0  0
   -0.9900   11.7600   19.9150 C   0  0  0  0  0  0  0  0  0  0  0  0
   -2.1050   12.7040   20.2850 C   0  0  0  0  0  0  0  0  0  0  0  0
   -3.1860   12.9100   19.2490 N   0  0  0  0  0  0  0  0  0  0  0  0
   -4.4150   13.6120   19.7880 C   0  0  0  0  0  0  0  0  0  0  0  0
   -5.4900   13.2510   18.7850 C   0  0  0  0  0  0  0  0  0  0  0  0
   -5.1900   11.7980   18.4840 C   0  0  0  0  0  0  0  0  0  0  0  0
   -3.6720   11.7080   18.4630 C   0  0  0  0  0  0  0  0  0  0  0  0
   -0.2220   11.9540   18.7650 C   0  0  0  0  0  0  0  0  0  0  0  0
    0.7510   11.0160   18.4010 C   0  0  0  0  0  0  0  0  0  0  0  0
    3.9380    6.5990   18.0710 C   0  0  0  0  0  0  0  0  0  0  0  0
    6.9980    6.5040   17.3890 C   0  0  0  0  0  0  0  0  0  0  0  0
    7.7790    6.1460   18.4300 N   0  0  0  0  0  0  0  0  0  0  0  0
    8.5270    7.2470   18.6620 N   0  0  0  0  0  0  0  0  0  0  0  0
    8.1810    8.2200   17.7940 N   0  0  0  0  0  0  0  0  0  0  0  0
    7.2040    7.7700   16.9800 N   0  0  0  0  0  0  0  0  0  0  0  0
  1  2  1  0
  2  3  1  0
  2  4  1  0
  2 25  1  0
  4  5  2  0
  4 24  1  0
  5  6  1  0
  6  7  2  0
  7  8  1  0
  8  9  1  0
  8 24  2  0
  9 10  1  0
 10 11  2  0
 10 12  1  0
 12 13  2  0
 12 23  1  0
 13 14  1  0
 14 15  2  0
 15 16  1  0
 15 22  1  0
 16 17  1  0
 17 18  1  0
 17 21  1  0
 18 19  1  0
 19 20  1  0
 20 21  1  0
 22 23  2  0
 25 26  1  0
 25 29  2  0
 26 27  1  0
 27 28  2  0
 28 29  1  0
M  END
>  <rseq>  (4) 
1

>  <mseq>  (4) 
3

>  <S>  (4) 
-8.2023525

>  <rmsd_refine>  (4) 
1.4954691

>  <E_conf>  (4) 
-72.03801

>  <E_place>  (4) 
-98.475121

>  <E_score1>  (4) 
-13.039323

>  <E_refine>  (4) 
-19.817785

>  <E_score2>  (4) 
-8.2023525

>  <Code>  (4) 
PV-005418440569

>  <LOGP>  (4) 
2.3346574

>  <MW>  (4) 
390.491

>  <TPSA>  (4) 
86.800003

>  <FSP3>  (4) 
0.36363637

>  <HBD>  (4) 
2

>  <HBA>  (4) 
5

>  <ROTB>  (4) 
6

>  <%C>  (4) 
82.248108

>  <PLIF_pronum>  (4) 
1

>  <PLIF_raw>  (4) 
[[17,11,28,17,25,25,25,25,25,25,29,29,29,29,29,29,28,28,28,28,28,28,27,27,27,27,27,27,26,26,26,26,26,26],[3848,3751,6105,3848,5127,5130,5132,5122,5123,5125,5127,5130,5132,5122,5123,5125,5127,5130,5132,5122,5123,5125,5127,5130,5132,5122,5123,5125,5127,5130,5132,5122,5123,5125],[268,263,220010,268,363,363,363,363,363,363,363,363,363,363,363,363,363,363,363,363,363,363,363,363,363,363,363,363,363,363,363,363,363,363],[1,4,6,7,10,10,10,10,10,10,10,10,10,10,10,10,10,10,10,10,10,10,10,10,10,10,10,10,10,10,10,10,10,10],[14,2.7,2,5.416293782,1e-005,1e-005,1e-005,1e-005,1e-005,1e-005,1e-005,1e-005,1e-005,1e-005,1e-005,1e-005,1e-005,1e-005,1e-005,1e-005,1e-005,1e-005,1e-005,1e-005,1e-005,1e-005,1e-005,1e-005,1e-005,1e-005,1e-005,1e-005,1e-005,1e-005]]

>  <FP:PLIF>  (4) 
8 9 1 2 3 4 5 7

>  <PLIF_ligidx>  (4) 
[11,11,17,17,17,17,28,28]

$$$$

     RDKit          3D

 27 30  0  0  0  0  0  0  0  0999 V2000
    2.0230    8.4600   17.7970 O   0  0  0  0  0  0  0  0  0  0  0  0
    2.2160    7.8690   18.8560 C   0  0  0  0  0  0  0  0  0  0  0  0
    1.7730    8.2350   20.1190 N   0  0  0  0  0  0  0  0  0  0  0  0
    0.9010    9.2960   20.4550 C   0  0  0  0  0  0  0  0  0  0  0  0
    0.6160    9.4760   21.8160 C   0  0  0  0  0  0  0  0  0  0  0  0
   -0.2570   10.4820   22.2350 C   0  0  0  0  0  0  0  0  0  0  0  0
   -0.8590   11.3180   21.2970 C   0  0  0  0  0  0  0  0  0  0  0  0
   -0.5880   11.1560   19.9330 C   0  0  0  0  0  0  0  0  0  0  0  0
   -1.2780   12.0170   18.9050 C   0  0  0  0  0  0  0  0  0  0  0  0
   -2.3770   11.2780   18.1760 N   0  0  0  0  0  0  0  0  0  0  0  0
   -2.1550   11.1540   16.6910 C   0  0  0  0  0  0  0  0  0  0  0  0
   -3.5150   10.7240   16.1980 C   0  0  0  0  0  0  0  0  0  0  0  0
   -4.4720   11.5730   17.0150 C   0  0  0  0  0  0  0  0  0  0  0  0
   -3.7740   11.8330   18.3430 C   0  0  0  0  0  0  0  0  0  0  0  0
    0.2990   10.1450   19.5220 C   0  0  0  0  0  0  0  0  0  0  0  0
    3.0370    6.6250   18.8230 C   0  0  0  0  0  0  0  0  0  0  0  0
    2.8520    5.5750   19.7260 C   0  0  0  0  0  0  0  0  0  0  0  0
    3.6520    4.4320   19.6380 C   0  0  0  0  0  0  0  0  0  0  0  0
    4.6620    4.3410   18.6850 C   0  0  0  0  0  0  0  0  0  0  0  0
    4.8560    5.3830   17.7780 C   0  0  0  0  0  0  0  0  0  0  0  0
    6.0320    5.3650   16.8330 C   0  0  0  0  0  0  0  0  0  0  0  0
    7.1010    6.2480   17.3420 C   0  0  0  0  0  0  0  0  0  0  0  0
    7.9020    5.9060   18.3670 N   0  0  0  0  0  0  0  0  0  0  0  0
    8.5310    7.0670   18.6680 N   0  0  0  0  0  0  0  0  0  0  0  0
    8.1440    8.0340   17.8050 N   0  0  0  0  0  0  0  0  0  0  0  0
    7.2340    7.5270   16.9450 N   0  0  0  0  0  0  0  0  0  0  0  0
    4.0210    6.5100   17.8360 C   0  0  0  0  0  0  0  0  0  0  0  0
  1  2  2  0
  2  3  1  0
  2 16  1  0
  3  4  1  0
  4  5  2  0
  4 15  1  0
  5  6  1  0
  6  7  2  0
  7  8  1  0
  8  9  1  0
  8 15  2  0
  9 10  1  0
 10 11  1  0
 10 14  1  0
 11 12  1  0
 12 13  1  0
 13 14  1  0
 16 17  2  0
 16 27  1  0
 17 18  1  0
 18 19  2  0
 19 20  1  0
 20 21  1  0
 20 27  2  0
 21 22  1  0
 22 23  1  0
 22 26  2  0
 23 24  1  0
 24 25  2  0
 25 26  1  0
M  END
>  <rseq>  (5) 
1

>  <mseq>  (5) 
21

>  <S>  (5) 
-8.0065861

>  <rmsd_refine>  (5) 
1.1638478

>  <E_conf>  (5) 
-91.088348

>  <E_place>  (5) 
-107.66808

>  <E_score1>  (5) 
-13.167717

>  <E_refine>  (5) 
-20.227705

>  <E_score2>  (5) 
-8.0065861

>  <Code>  (5) 
Z4412381053

>  <LOGP>  (5) 
1.2274364

>  <MW>  (5) 
362.43701

>  <TPSA>  (5) 
86.800003

>  <FSP3>  (5) 
0.30000001

>  <HBD>  (5) 
2

>  <HBA>  (5) 
5

>  <ROTB>  (5) 
6

>  <%C>  (5) 
83.854416

>  <PLIF_pronum>  (5) 
1

>  <PLIF_raw>  (5) 
[[25,10,22,22,22,22,22,22,26,26,26,26,26,26,25,25,25,25,25,25,24,24,24,24,24,24,23,23,23,23,23,23],[6105,3848,5125,5127,5130,5132,5122,5123,5125,5127,5130,5132,5122,5123,5125,5127,5130,5132,5122,5123,5125,5127,5130,5132,5122,5123,5125,5127,5130,5132,5122,5123],[220010,268,363,363,363,363,363,363,363,363,363,363,363,363,363,363,363,363,363,363,363,363,363,363,363,363,363,363,363,363,363,363],[6,7,10,10,10,10,10,10,10,10,10,10,10,10,10,10,10,10,10,10,10,10,10,10,10,10,10,10,10,10,10,10],[1.7,0.7259138036,1e-005,1e-005,1e-005,1e-005,1e-005,1e-005,1e-005,1e-005,1e-005,1e-005,1e-005,1e-005,1e-005,1e-005,1e-005,1e-005,1e-005,1e-005,1e-005,1e-005,1e-005,1e-005,1e-005,1e-005,1e-005,1e-005,1e-005,1e-005,1e-005,1e-005]]

>  <FP:PLIF>  (5) 
3 5 7

>  <PLIF_ligidx>  (5) 
[10,25,25]

$$$$

     RDKit          3D

 27 30  0  0  0  0  0  0  0  0999 V2000
    2.4300    8.9260   17.6800 O   0  0  0  0  0  0  0  0  0  0  0  0
    1.9790    8.6170   18.7790 C   0  0  0  0  0  0  0  0  0  0  0  0
    2.1890    7.4210   19.4420 N   0  0  0  0  0  0  0  0  0  0  0  0
    3.0670    6.3820   19.0670 C   0  0  0  0  0  0  0  0  0  0  0  0
    3.0260    5.2210   19.8420 C   0  0  0  0  0  0  0  0  0  0  0  0
    3.8610    4.1390   19.5610 C   0  0  0  0  0  0  0  0  0  0  0  0
    4.7780    4.2200   18.5230 C   0  0  0  0  0  0  0  0  0  0  0  0
    4.8460    5.3790   17.7450 C   0  0  0  0  0  0  0  0  0  0  0  0
    5.9480    5.5400   16.7260 C   0  0  0  0  0  0  0  0  0  0  0  0
    7.0470    6.3490   17.2910 C   0  0  0  0  0  0  0  0  0  0  0  0
    7.8620    5.8970   18.2620 N   0  0  0  0  0  0  0  0  0  0  0  0
    8.5270    7.0100   18.6490 N   0  0  0  0  0  0  0  0  0  0  0  0
    8.1670    8.0530   17.8670 N   0  0  0  0  0  0  0  0  0  0  0  0
    7.2210    7.6490   16.9900 N   0  0  0  0  0  0  0  0  0  0  0  0
    3.9740    6.4490   18.0110 C   0  0  0  0  0  0  0  0  0  0  0  0
    1.0600    9.5780   19.4590 C   0  0  0  0  0  0  0  0  0  0  0  0
    0.7550    9.5220   20.8240 C   0  0  0  0  0  0  0  0  0  0  0  0
   -0.1350   10.4440   21.3800 C   0  0  0  0  0  0  0  0  0  0  0  0
   -0.7200   11.4280   20.5830 C   0  0  0  0  0  0  0  0  0  0  0  0
   -0.4150   11.5080   19.2190 C   0  0  0  0  0  0  0  0  0  0  0  0
   -1.0310   12.5650   18.3440 C   0  0  0  0  0  0  0  0  0  0  0  0
   -2.3100   12.2140   17.6380 N   0  0  0  0  0  0  0  0  0  0  0  0
   -3.5180   11.9640   18.4960 C   0  0  0  0  0  0  0  0  0  0  0  0
   -4.4860   11.3370   17.5180 C   0  0  0  0  0  0  0  0  0  0  0  0
   -3.5920   10.3990   16.7270 C   0  0  0  0  0  0  0  0  0  0  0  0
   -2.2740   11.1380   16.5810 C   0  0  0  0  0  0  0  0  0  0  0  0
    0.4870   10.5860   18.6730 C   0  0  0  0  0  0  0  0  0  0  0  0
  1  2  2  0
  2  3  1  0
  2 16  1  0
  3  4  1  0
  4  5  2  0
  4 15  1  0
  5  6  1  0
  6  7  2  0
  7  8  1  0
  8  9  1  0
  8 15  2  0
  9 10  1  0
 10 11  1  0
 10 14  2  0
 11 12  1  0
 12 13  2  0
 13 14  1  0
 16 17  2  0
 16 27  1  0
 17 18  1  0
 18 19  2  0
 19 20  1  0
 20 21  1  0
 20 27  2  0
 21 22  1  0
 22 23  1  0
 22 26  1  0
 23 24  1  0
 24 25  1  0
 25 26  1  0
M  END
>  <rseq>  (6) 
1

>  <mseq>  (6) 
20

>  <S>  (6) 
-7.9383497

>  <rmsd_refine>  (6) 
1.4341459

>  <E_conf>  (6) 
-90.170624

>  <E_place>  (6) 
-104.2019

>  <E_score1>  (6) 
-14.635135

>  <E_refine>  (6) 
-20.062307

>  <E_score2>  (6) 
-7.9383497

>  <Code>  (6) 
Z2911313247

>  <LOGP>  (6) 
1.8583512

>  <MW>  (6) 
362.43701

>  <TPSA>  (6) 
86.800003

>  <FSP3>  (6) 
0.30000001

>  <HBD>  (6) 
2

>  <HBA>  (6) 
5

>  <ROTB>  (6) 
6

>  <%C>  (6) 
82.281853

>  <PLIF_pronum>  (6) 
1

>  <PLIF_raw>  (6) 
[[22,22,1,13,22,22,10,10,10,10,10,10,14,14,14,14,14,14,13,13,13,13,13,13,12,12,12,12,12,12,11,11,11,11,11,11],[3848,3849,3751,6105,3848,3849,5125,5127,5130,5132,5122,5123,5125,5127,5130,5132,5122,5123,5125,5127,5130,5132,5122,5123,5125,5127,5130,5132,5122,5123,5125,5127,5130,5132,5122,5123],[268,268,263,220010,268,268,363,363,363,363,363,363,363,363,363,363,363,363,363,363,363,363,363,363,363,363,363,363,363,363,363,363,363,363,363,363],[1,1,4,6,7,7,10,10,10,10,10,10,10,10,10,10,10,10,10,10,10,10,10,10,10,10,10,10,10,10,10,10,10,10,10,10],[11.5,4.9,1.6,1.9,5.110616552,2.80640517,1e-005,1e-005,1e-005,1e-005,1e-005,1e-005,1e-005,1e-005,1e-005,1e-005,1e-005,1e-005,1e-005,1e-005,1e-005,1e-005,1e-005,1e-005,1e-005,1e-005,1e-005,1e-005,1e-005,1e-005,1e-005,1e-005,1e-005,1e-005,1e-005,1e-005]]

>  <FP:PLIF>  (6) 
8 9 1 2 3 4 5 7

>  <PLIF_ligidx>  (6) 
[1,1,[22,22],[22,22],[22,22],22,13,13]

$$$$

     RDKit          3D

 29 32  0  0  0  0  0  0  0  0999 V2000
    5.3210    6.0850   15.5140 C   0  0  0  0  0  0  0  0  0  0  0  0
    5.7530    5.6390   16.9350 C   0  0  0  0  0  0  0  0  0  0  0  0
    6.2820    4.1950   16.7290 C   0  0  0  0  0  0  0  0  0  0  0  0
    4.5740    5.7170   17.9280 C   0  0  0  0  0  0  0  0  0  0  0  0
    4.3180    4.7010   18.8480 C   0  0  0  0  0  0  0  0  0  0  0  0
    3.3040    4.8450   19.7930 C   0  0  0  0  0  0  0  0  0  0  0  0
    2.5470    6.0130   19.8840 C   0  0  0  0  0  0  0  0  0  0  0  0
    2.7690    7.0510   18.9860 C   0  0  0  0  0  0  0  0  0  0  0  0
    2.0290    8.2570   19.1500 N   0  0  0  0  0  0  0  0  0  0  0  0
    1.9860    9.2910   18.2310 C   0  0  0  0  0  0  0  0  0  0  0  0
    2.3770    9.2480   17.0720 O   0  0  0  0  0  0  0  0  0  0  0  0
    1.3650   10.5590   18.6580 C   0  0  0  0  0  0  0  0  0  0  0  0
    2.0680   11.7530   18.4660 C   0  0  0  0  0  0  0  0  0  0  0  0
    1.4520   12.9830   18.6880 C   0  0  0  0  0  0  0  0  0  0  0  0
    0.1120   13.0280   19.0540 C   0  0  0  0  0  0  0  0  0  0  0  0
   -0.6080   11.8390   19.2210 C   0  0  0  0  0  0  0  0  0  0  0  0
   -2.0900   11.8810   19.4550 C   0  0  0  0  0  0  0  0  0  0  0  0
   -2.8950   12.3010   18.2570 N   0  0  0  0  0  0  0  0  0  0  0  0
   -4.3820   12.3920   18.5410 C   0  0  0  0  0  0  0  0  0  0  0  0
   -5.0300   12.0090   17.2300 C   0  0  0  0  0  0  0  0  0  0  0  0
   -4.1020   10.9350   16.7040 C   0  0  0  0  0  0  0  0  0  0  0  0
   -2.7160   11.4550   17.0100 C   0  0  0  0  0  0  0  0  0  0  0  0
    0.0350   10.5990   19.0600 C   0  0  0  0  0  0  0  0  0  0  0  0
    3.7730    6.8790   18.0160 C   0  0  0  0  0  0  0  0  0  0  0  0
    6.8800    6.4920   17.4590 C   0  0  0  0  0  0  0  0  0  0  0  0
    7.6680    6.1140   18.4870 N   0  0  0  0  0  0  0  0  0  0  0  0
    8.4920    7.1710   18.6630 N   0  0  0  0  0  0  0  0  0  0  0  0
    8.1760    8.1440   17.7840 N   0  0  0  0  0  0  0  0  0  0  0  0
    7.1540    7.7310   17.0050 N   0  0  0  0  0  0  0  0  0  0  0  0
  1  2  1  0
  2  3  1  0
  2  4  1  0
  2 25  1  0
  4  5  2  0
  4 24  1  0
  5  6  1  0
  6  7  2  0
  7  8  1  0
  8  9  1  0
  8 24  2  0
  9 10  1  0
 10 11  2  0
 10 12  1  0
 12 13  2  0
 12 23  1  0
 13 14  1  0
 14 15  2  0
 15 16  1  0
 16 17  1  0
 16 23  2  0
 17 18  1  0
 18 19  1  0
 18 22  1  0
 19 20  1  0
 20 21  1  0
 21 22  1  0
 25 26  1  0
 25 29  2  0
 26 27  1  0
 27 28  2  0
 28 29  1  0
M  END
>  <rseq>  (7) 
1

>  <mseq>  (7) 
12

>  <S>  (7) 
-7.9205208

>  <rmsd_refine>  (7) 
1.3805057

>  <E_conf>  (7) 
-73.795715

>  <E_place>  (7) 
-105.11184

>  <E_score1>  (7) 
-12.565668

>  <E_refine>  (7) 
-16.073553

>  <E_score2>  (7) 
-7.9205208

>  <Code>  (7) 
PV-004216514549

>  <LOGP>  (7) 
2.9715157

>  <MW>  (7) 
390.491

>  <TPSA>  (7) 
86.800003

>  <FSP3>  (7) 
0.36363637

>  <HBD>  (7) 
2

>  <HBA>  (7) 
5

>  <ROTB>  (7) 
6

>  <%C>  (7) 
82.042519

>  <PLIF_pronum>  (7) 
1

>  <PLIF_raw>  (7) 
[[18,22,11,28,18,18,4,24,8,7,6,5,25,25,25,25,25,25,29,29,29,29,29,29,28,28,28,28,28,28,27,27,27,27,27,27,26,26,26,26,26,26],[3848,3849,3751,6105,3848,3849,6129,6129,6129,6129,6129,6129,5127,5130,5132,5122,5123,5125,5127,5130,5132,5122,5123,5125,5127,5130,5132,5122,5123,5125,5127,5130,5132,5122,5123,5125,5127,5130,5132,5122,5123,5125],[268,268,263,220010,268,268,220019,220019,220019,220019,220019,220019,363,363,363,363,363,363,363,363,363,363,363,363,363,363,363,363,363,363,363,363,363,363,363,363,363,363,363,363,363,363],[1,1,4,6,7,7,10,10,10,10,10,10,10,10,10,10,10,10,10,10,10,10,10,10,10,10,10,10,10,10,10,10,10,10,10,10,10,10,10,10,10,10],[14.5,0.5,5.8,1.5,5.284984284,1.436674134,0.6,0.6,0.6,0.6,0.6,0.6,1e-005,1e-005,1e-005,1e-005,1e-005,1e-005,1e-005,1e-005,1e-005,1e-005,1e-005,1e-005,1e-005,1e-005,1e-005,1e-005,1e-005,1e-005,1e-005,1e-005,1e-005,1e-005,1e-005,1e-005,1e-005,1e-005,1e-005,1e-005,1e-005,1e-005]]

>  <FP:PLIF>  (7) 
8 9 1 2 3 4 5 7 10

>  <PLIF_ligidx>  (7) 
[11,11,[18,22],18,[18,18],18,28,28,[4,24,8,7,6,5]]

$$$$

     RDKit          3D

 25 27  0  0  0  0  0  0  0  0999 V2000
   -0.3500   13.2140   18.7790 C   0  0  0  0  0  0  0  0  0  0  0  0
   -0.0130   11.8990   19.4160 C   0  0  0  0  0  0  0  0  0  0  0  0
   -0.4540   11.5860   20.7040 C   0  0  0  0  0  0  0  0  0  0  0  0
   -0.1170   10.3500   21.2510 C   0  0  0  0  0  0  0  0  0  0  0  0
   -0.5370   10.0020   22.6460 C   0  0  0  0  0  0  0  0  0  0  0  0
    0.6370    9.4380   20.5930 N   0  0  0  0  0  0  0  0  0  0  0  0
    1.0680    9.7710   19.3490 C   0  0  0  0  0  0  0  0  0  0  0  0
    0.7750   10.9760   18.7280 C   0  0  0  0  0  0  0  0  0  0  0  0
    1.9210    8.7630   18.6560 C   0  0  0  0  0  0  0  0  0  0  0  0
    2.3310    8.9960   17.5250 O   0  0  0  0  0  0  0  0  0  0  0  0
    2.1350    7.6130   19.3970 N   0  0  0  0  0  0  0  0  0  0  0  0
    2.9830    6.5310   19.0800 C   0  0  0  0  0  0  0  0  0  0  0  0
    3.9360    6.5550   18.0580 C   0  0  0  0  0  0  0  0  0  0  0  0
    4.8020    5.4620   17.8190 C   0  0  0  0  0  0  0  0  0  0  0  0
    4.6610    4.3280   18.6290 C   0  0  0  0  0  0  0  0  0  0  0  0
    3.7040    4.2920   19.6390 C   0  0  0  0  0  0  0  0  0  0  0  0
    2.8860    5.3940   19.8790 C   0  0  0  0  0  0  0  0  0  0  0  0
    5.9400    5.5890   16.7900 C   0  0  0  0  0  0  0  0  0  0  0  0
    6.6060    4.2390   16.4340 C   0  0  0  0  0  0  0  0  0  0  0  0
    5.3940    6.1100   15.4360 C   0  0  0  0  0  0  0  0  0  0  0  0
    6.9950    6.4960   17.3690 C   0  0  0  0  0  0  0  0  0  0  0  0
    7.1950    7.7670   16.9720 N   0  0  0  0  0  0  0  0  0  0  0  0
    8.1690    8.2140   17.7920 N   0  0  0  0  0  0  0  0  0  0  0  0
    8.5180    7.2350   18.6510 N   0  0  0  0  0  0  0  0  0  0  0  0
    7.7790    6.1310   18.4060 N   0  0  0  0  0  0  0  0  0  0  0  0
  1  2  1  0
  2  3  2  0
  2  8  1  0
  3  4  1  0
  4  5  1  0
  4  6  2  0
  6  7  1  0
  7  8  2  0
  7  9  1  0
  9 10  2  0
  9 11  1  0
 11 12  1  0
 12 13  2  0
 12 17  1  0
 13 14  1  0
 14 15  2  0
 14 18  1  0
 15 16  1  0
 16 17  2  0
 18 19  1  0
 18 20  1  0
 18 21  1  0
 21 22  1  0
 21 25  2  0
 22 23  1  0
 23 24  2  0
 24 25  1  0
M  END
>  <rseq>  (8) 
1

>  <mseq>  (8) 
11

>  <S>  (8) 
-7.6255331

>  <rmsd_refine>  (8) 
1.7053229

>  <E_conf>  (8) 
1.8612704

>  <E_place>  (8) 
-82.432098

>  <E_score1>  (8) 
-12.333802

>  <E_refine>  (8) 
-16.319052

>  <E_score2>  (8) 
-7.6255331

>  <Code>  (8) 
PV-002939864165

>  <LOGP>  (8) 
3.9555924

>  <MW>  (8) 
336.39899

>  <TPSA>  (8) 
96.449997

>  <FSP3>  (8) 
0.27777779

>  <HBD>  (8) 
2

>  <HBA>  (8) 
5

>  <ROTB>  (8) 
4

>  <%C>  (8) 
83.816605

>  <PLIF_pronum>  (8) 
1

>  <PLIF_raw>  (8) 
[[10,23,21,21,21,21,21,21,25,25,25,25,25,25,24,24,24,24,24,24,23,23,23,23,23,23,22,22,22,22,22,22],[3751,6105,5127,5130,5132,5122,5123,5125,5127,5130,5132,5122,5123,5125,5127,5130,5132,5122,5123,5125,5127,5130,5132,5122,5123,5125,5127,5130,5132,5122,5123,5125],[263,220010,363,363,363,363,363,363,363,363,363,363,363,363,363,363,363,363,363,363,363,363,363,363,363,363,363,363,363,363,363,363],[4,6,10,10,10,10,10,10,10,10,10,10,10,10,10,10,10,10,10,10,10,10,10,10,10,10,10,10,10,10,10,10],[2.8,2.1,1e-005,1e-005,1e-005,1e-005,1e-005,1e-005,1e-005,1e-005,1e-005,1e-005,1e-005,1e-005,1e-005,1e-005,1e-005,1e-005,1e-005,1e-005,1e-005,1e-005,1e-005,1e-005,1e-005,1e-005,1e-005,1e-005,1e-005,1e-005,1e-005,1e-005]]

>  <FP:PLIF>  (8) 
8 9 5 7

>  <PLIF_ligidx>  (8) 
[10,10,23,23]

$$$$

     RDKit          3D

 25 27  0  0  0  0  0  0  0  0999 V2000
   -0.6070   13.0270   18.9550 C   0  0  0  0  0  0  0  0  0  0  0  0
   -0.1420   11.7280   19.5400 C   0  0  0  0  0  0  0  0  0  0  0  0
    0.6720   10.8910   18.7970 C   0  0  0  0  0  0  0  0  0  0  0  0
    1.0390    9.7080   19.4060 C   0  0  0  0  0  0  0  0  0  0  0  0
    0.6490    9.3560   20.6540 N   0  0  0  0  0  0  0  0  0  0  0  0
   -0.1310   10.2450   21.2990 C   0  0  0  0  0  0  0  0  0  0  0  0
   -0.5480    9.8970   22.6920 C   0  0  0  0  0  0  0  0  0  0  0  0
   -0.5440   11.4270   20.7970 N   0  0  0  0  0  0  0  0  0  0  0  0
    1.9160    8.7350   18.6950 C   0  0  0  0  0  0  0  0  0  0  0  0
    2.3250    9.0000   17.5710 O   0  0  0  0  0  0  0  0  0  0  0  0
    2.1440    7.5750   19.4160 N   0  0  0  0  0  0  0  0  0  0  0  0
    3.0000    6.5050   19.0840 C   0  0  0  0  0  0  0  0  0  0  0  0
    3.9450    6.5410   18.0550 C   0  0  0  0  0  0  0  0  0  0  0  0
    4.8140    5.4540   17.8060 C   0  0  0  0  0  0  0  0  0  0  0  0
    4.6830    4.3130   18.6090 C   0  0  0  0  0  0  0  0  0  0  0  0
    3.7340    4.2650   19.6240 C   0  0  0  0  0  0  0  0  0  0  0  0
    2.9120    5.3620   19.8750 C   0  0  0  0  0  0  0  0  0  0  0  0
    5.9480    5.5930   16.7730 C   0  0  0  0  0  0  0  0  0  0  0  0
    6.6180    4.2480   16.4060 C   0  0  0  0  0  0  0  0  0  0  0  0
    5.3940    6.1200   15.4250 C   0  0  0  0  0  0  0  0  0  0  0  0
    7.0000    6.4990   17.3560 C   0  0  0  0  0  0  0  0  0  0  0  0
    7.1910    7.7750   16.9700 N   0  0  0  0  0  0  0  0  0  0  0  0
    8.1650    8.2210   17.7920 N   0  0  0  0  0  0  0  0  0  0  0  0
    8.5180    7.2380   18.6450 N   0  0  0  0  0  0  0  0  0  0  0  0
    7.7860    6.1320   18.3900 N   0  0  0  0  0  0  0  0  0  0  0  0
  1  2  1  0
  2  3  2  0
  2  8  1  0
  3  4  1  0
  4  5  2  0
  4  9  1  0
  5  6  1  0
  6  7  1  0
  6  8  2  0
  9 10  2  0
  9 11  1  0
 11 12  1  0
 12 13  2  0
 12 17  1  0
 13 14  1  0
 14 15  2  0
 14 18  1  0
 15 16  1  0
 16 17  2  0
 18 19  1  0
 18 20  1  0
 18 21  1  0
 21 22  1  0
 21 25  2  0
 22 23  1  0
 23 24  2  0
 24 25  1  0
M  END
>  <rseq>  (9) 
1

>  <mseq>  (9) 
4

>  <S>  (9) 
-7.5706825

>  <rmsd_refine>  (9) 
1.094731

>  <E_conf>  (9) 
-43.549801

>  <E_place>  (9) 
-103.93292

>  <E_score1>  (9) 
-12.717815

>  <E_refine>  (9) 
-16.342024

>  <E_score2>  (9) 
-7.5706825

>  <Code>  (9) 
PV-003467937726

>  <LOGP>  (9) 
3.2760222

>  <MW>  (9) 
337.38699

>  <TPSA>  (9) 
109.34

>  <FSP3>  (9) 
0.29411766

>  <HBD>  (9) 
2

>  <HBA>  (9) 
6

>  <ROTB>  (9) 
4

>  <%C>  (9) 
83.792

>  <PLIF_pronum>  (9) 
1

>  <PLIF_raw>  (9) 
[[10,23,21,21,21,21,21,21,25,25,25,25,25,25,24,24,24,24,24,24,23,23,23,23,23,23,22,22,22,22,22,22],[3751,6105,5127,5130,5132,5122,5123,5125,5127,5130,5132,5122,5123,5125,5127,5130,5132,5122,5123,5125,5127,5130,5132,5122,5123,5125,5127,5130,5132,5122,5123,5125],[263,220010,363,363,363,363,363,363,363,363,363,363,363,363,363,363,363,363,363,363,363,363,363,363,363,363,363,363,363,363,363,363],[4,6,10,10,10,10,10,10,10,10,10,10,10,10,10,10,10,10,10,10,10,10,10,10,10,10,10,10,10,10,10,10],[2.4,2.1,1e-005,1e-005,1e-005,1e-005,1e-005,1e-005,1e-005,1e-005,1e-005,1e-005,1e-005,1e-005,1e-005,1e-005,1e-005,1e-005,1e-005,1e-005,1e-005,1e-005,1e-005,1e-005,1e-005,1e-005,1e-005,1e-005,1e-005,1e-005,1e-005,1e-005]]

>  <FP:PLIF>  (9) 
8 9 5 7

>  <PLIF_ligidx>  (9) 
[10,10,23,23]

$$$$

     RDKit          3D

 24 27  0  0  0  0  0  0  0  0999 V2000
    8.4260    5.1530   19.5450 C   0  0  0  0  0  0  0  0  0  0  0  0
    8.1060    6.0630   18.4850 N   0  0  0  0  0  0  0  0  0  0  0  0
    8.4440    7.3770   18.3990 C   0  0  0  0  0  0  0  0  0  0  0  0
    8.0130    7.8710   17.2600 N   0  0  0  0  0  0  0  0  0  0  0  0
    7.3690    6.8550   16.5880 N   0  0  0  0  0  0  0  0  0  0  0  0
    7.4030    5.7880   17.3540 C   0  0  0  0  0  0  0  0  0  0  0  0
    6.4550    4.3410   17.1650 S   0  0  0  0  0  0  0  0  0  0  0  0
    4.9570    5.1120   17.7390 C   0  0  0  0  0  0  0  0  0  0  0  0
    4.4320    6.1120   16.9390 C   0  0  0  0  0  0  0  0  0  0  0  0
    3.5060    6.9930   17.4650 C   0  0  0  0  0  0  0  0  0  0  0  0
    2.9980    6.8530   18.7520 C   0  0  0  0  0  0  0  0  0  0  0  0
    2.1050    7.7980   19.3210 N   0  0  0  0  0  0  0  0  0  0  0  0
    1.6240    8.9340   18.6700 C   0  0  0  0  0  0  0  0  0  0  0  0
    1.8800    9.2120   17.4900 O   0  0  0  0  0  0  0  0  0  0  0  0
    0.7320    9.8750   19.4920 C   0  0  1  0  0  0  0  0  0  0  0  0
    1.0620   11.4210   19.4680 C   0  0  0  0  0  0  0  0  0  0  0  0
   -0.4250   11.4530   19.9760 C   0  0  1  0  0  0  0  0  0  0  0  0
   -1.2420   12.7130   19.9810 C   0  0  0  0  0  0  0  0  0  0  0  0
   -1.2350   13.3970   18.6680 N   0  0  0  0  0  0  0  0  0  0  0  0
   -0.6350   10.3610   18.8670 C   0  0  0  0  0  0  0  0  0  0  0  0
   -0.4380   10.7550   21.2540 O   0  0  0  0  0  0  0  0  0  0  0  0
    0.3810    9.6020   20.9680 C   0  0  0  0  0  0  0  0  0  0  0  0
    3.4350    5.7650   19.5130 C   0  0  0  0  0  0  0  0  0  0  0  0
    4.4300    4.9050   19.0170 C   0  0  0  0  0  0  0  0  0  0  0  0
  1  2  1  0
  2  3  1  0
  2  6  1  0
  3  4  2  0
  4  5  1  0
  5  6  2  0
  6  7  1  0
  7  8  1  0
  8  9  2  0
  8 24  1  0
  9 10  1  0
 10 11  2  0
 11 12  1  0
 11 23  1  0
 12 13  1  0
 13 14  2  0
 15 13  1  6
 15 16  1  0
 15 20  1  0
 15 22  1  0
 16 17  1  0
 17 18  1  1
 17 20  1  0
 17 21  1  0
 18 19  1  0
 21 22  1  0
 23 24  2  0
M  CHG  1  19   1
M  END
>  <rseq>  (10) 
1

>  <mseq>  (10) 
2

>  <S>  (10) 
-7.2586994

>  <rmsd_refine>  (10) 
2.6105039

>  <E_conf>  (10) 
-45.393818

>  <E_place>  (10) 
-56.932762

>  <E_score1>  (10) 
-7.1461034

>  <E_refine>  (10) 
-20.730087

>  <E_score2>  (10) 
-7.2586994

>  <Code>  (10) 
Z3099733423

>  <LOGP>  (10) 
0.63008803

>  <MW>  (10) 
345.42001

>  <TPSA>  (10) 
95.059998

>  <FSP3>  (10) 
0.4375

>  <HBD>  (10) 
2

>  <HBA>  (10) 
5

>  <ROTB>  (10) 
5

>  <%C>  (10) 
98.151115

>  <PLIF_pronum>  (10) 
1

>  <PLIF_raw>  (10) 
[[19,4,5,14,19,19,2,2,2,2,2,2,6,6,6,6,6,6,5,5,5,5,5,5,4,4,4,4,4,4,3,3,3,3,3,3],[3848,6105,3716,3751,3848,3849,5122,5132,5130,5127,5125,5123,5122,5132,5130,5127,5125,5123,5122,5132,5130,5127,5125,5123,5122,5132,5130,5127,5125,5123,5122,5132,5130,5127,5125,5123],[268,220010,260,263,268,268,363,363,363,363,363,363,363,363,363,363,363,363,363,363,363,363,363,363,363,363,363,363,363,363,363,363,363,363,363,363],[1,6,2,4,7,7,10,10,10,10,10,10,10,10,10,10,10,10,10,10,10,10,10,10,10,10,10,10,10,10,10,10,10,10,10,10],[9.9,0.5,1.3,2,6.642312036,0.502520949,1e-005,1e-005,1e-005,1e-005,1e-005,1e-005,1e-005,1e-005,1e-005,1e-005,1e-005,1e-005,1e-005,1e-005,1e-005,1e-005,1e-005,1e-005,1e-005,1e-005,1e-005,1e-005,1e-005,1e-005,1e-005,1e-005,1e-005,1e-005,1e-005,1e-005]]

>  <FP:PLIF>  (10) 
11 8 9 1 2 3 4 5

>  <PLIF_ligidx>  (10) 
[5,14,14,19,19,[19,19],19,4]

$$$$

     RDKit          3D

 23 25  0  0  1  0  0  0  0  0999 V2000
   -1.2560   13.0920   18.5290 N   0  0  0  0  0  0  0  0  0  0  0  0
   -1.9170   11.8200   18.8940 C   0  0  0  0  0  0  0  0  0  0  0  0
   -0.9550   10.8390   19.5720 C   0  0  2  0  0  0  0  0  0  0  0  0
   -0.5900   11.2380   21.0110 C   0  0  0  0  0  0  0  0  0  0  0  0
    0.7010   10.5740   21.5000 C   0  0  0  0  0  0  0  0  0  0  0  0
    1.0310    9.2810   20.7530 C   0  0  0  0  0  0  0  0  0  0  0  0
    1.1240    9.4900   19.3040 N   0  0  0  0  0  0  0  0  0  0  0  0
    0.3080   10.5790   18.7520 C   0  0  0  0  0  0  0  0  0  0  0  0
    1.9240    8.7980   18.3810 C   0  0  0  0  0  0  0  0  0  0  0  0
    2.0650    9.2420   17.2350 O   0  0  0  0  0  0  0  0  0  0  0  0
    2.6320    7.5120   18.6540 C   0  0  0  0  0  0  0  0  0  0  0  0
    2.4310    6.6730   19.7440 C   0  0  0  0  0  0  0  0  0  0  0  0
    3.1290    5.4640   19.8390 C   0  0  0  0  0  0  0  0  0  0  0  0
    3.9990    5.0400   18.8370 C   0  0  0  0  0  0  0  0  0  0  0  0
    4.1450    5.8240   17.7040 C   0  0  0  0  0  0  0  0  0  0  0  0
    4.8040    5.2820   16.6300 O   0  0  0  0  0  0  0  0  0  0  0  0
    5.8130    6.1310   16.0510 C   0  0  0  0  0  0  0  0  0  0  0  0
    6.9140    6.3910   17.0170 C   0  0  0  0  0  0  0  0  0  0  0  0
    7.4490    5.4190   17.8410 C   0  0  0  0  0  0  0  0  0  0  0  0
    8.4090    6.1460   19.0270 S   0  0  0  0  0  0  0  0  0  0  0  0
    8.2350    7.6490   18.2240 C   0  0  0  0  0  0  0  0  0  0  0  0
    7.4090    7.6740   17.2020 N   0  0  0  0  0  0  0  0  0  0  0  0
    3.4930    7.0540   17.6360 C   0  0  0  0  0  0  0  0  0  0  0  0
  1  2  1  0
  3  2  1  6
  3  4  1  0
  3  8  1  0
  4  5  1  0
  5  6  1  0
  6  7  1  0
  7  8  1  0
  7  9  1  0
  9 10  2  0
  9 11  1  0
 11 12  2  0
 11 23  1  0
 12 13  1  0
 13 14  2  0
 14 15  1  0
 15 16  1  0
 15 23  2  0
 16 17  1  0
 17 18  1  0
 18 19  2  0
 18 22  1  0
 19 20  1  0
 20 21  1  0
 21 22  2  0
M  CHG  1   1   1
M  END
>  <rseq>  (11) 
1

>  <mseq>  (11) 
10

>  <S>  (11) 
-7.0637808

>  <rmsd_refine>  (11) 
1.2488227

>  <E_conf>  (11) 
-20.723711

>  <E_place>  (11) 
-91.084091

>  <E_score1>  (11) 
-11.454353

>  <E_refine>  (11) 
-20.010706

>  <E_score2>  (11) 
-7.0637808

>  <Code>  (11) 
Z2301730404

>  <LOGP>  (11) 
1.29164

>  <MW>  (11) 
331.42999

>  <TPSA>  (11) 
68.449997

>  <FSP3>  (11) 
0.41176471

>  <HBD>  (11) 
1

>  <HBA>  (11) 
4

>  <ROTB>  (11) 
5

>  <%C>  (11) 
99.485718

>  <PLIF_pronum>  (11) 
1

>  <PLIF_raw>  (11) 
[[1,20,10,1,1,18,18,18,18,18,18,22,22,22,22,22,22,21,21,21,21,21,21,20,20,20,20,20,20,19,19,19,19,19,19],[3848,3030,3751,3848,3849,5127,5130,5132,5122,5123,5125,5127,5130,5132,5122,5123,5125,5127,5130,5132,5122,5123,5125,5127,5130,5132,5122,5123,5125,5127,5130,5132,5122,5123,5125],[268,218,263,268,268,363,363,363,363,363,363,363,363,363,363,363,363,363,363,363,363,363,363,363,363,363,363,363,363,363,363,363,363,363,363],[1,1,4,7,7,10,10,10,10,10,10,10,10,10,10,10,10,10,10,10,10,10,10,10,10,10,10,10,10,10,10,10,10,10,10],[17.6,0.9,3.9,5.630504211,0.5813205884,1e-005,1e-005,1e-005,1e-005,1e-005,1e-005,1e-005,1e-005,1e-005,1e-005,1e-005,1e-005,1e-005,1e-005,1e-005,1e-005,1e-005,1e-005,1e-005,1e-005,1e-005,1e-005,1e-005,1e-005,1e-005,1e-005,1e-005,1e-005,1e-005,1e-005]]

>  <FP:PLIF>  (11) 
13 8 9 1 2 3 4

>  <PLIF_ligidx>  (11) 
[20,10,10,1,1,[1,1],1]

$$$$

     RDKit          3D

 23 26  0  0  0  0  0  0  0  0999 V2000
   -0.8060   13.4510   18.0260 N   0  0  0  0  0  0  0  0  0  0  0  0
   -0.9700   12.8470   19.3640 C   0  0  0  0  0  0  0  0  0  0  0  0
   -0.2000   11.5690   19.5140 C   0  0  1  0  0  0  0  0  0  0  0  0
   -0.3900   10.3760   18.5070 C   0  0  0  0  0  0  0  0  0  0  0  0
    0.9240    9.9180   19.2480 C   0  0  1  0  0  0  0  0  0  0  0  0
    1.3090   11.4430   19.0900 C   0  0  0  0  0  0  0  0  0  0  0  0
    0.4820    9.8060   20.7250 C   0  0  0  0  0  0  0  0  0  0  0  0
   -0.3040   11.0050   20.8510 O   0  0  0  0  0  0  0  0  0  0  0  0
    1.8380    8.8600   18.5940 C   0  0  0  0  0  0  0  0  0  0  0  0
    2.3160    9.0480   17.4690 O   0  0  0  0  0  0  0  0  0  0  0  0
    2.0360    7.7100   19.3470 N   0  0  0  0  0  0  0  0  0  0  0  0
    2.8970    6.6250   19.0570 C   0  0  0  0  0  0  0  0  0  0  0  0
    2.7990    5.4980   19.8780 C   0  0  0  0  0  0  0  0  0  0  0  0
    3.6230    4.3880   19.6700 C   0  0  0  0  0  0  0  0  0  0  0  0
    4.5920    4.4070   18.6760 C   0  0  0  0  0  0  0  0  0  0  0  0
    4.7230    5.5330   17.8610 C   0  0  0  0  0  0  0  0  0  0  0  0
    5.8720    5.6250   16.8950 C   0  0  0  0  0  0  0  0  0  0  0  0
    6.9760    6.2890   17.5540 N   0  0  0  0  0  0  0  0  0  0  0  0
    7.8850    5.7330   18.3960 C   0  0  0  0  0  0  0  0  0  0  0  0
    8.6860    6.6720   18.8440 N   0  0  0  0  0  0  0  0  0  0  0  0
    8.3220    7.8610   18.2510 N   0  0  0  0  0  0  0  0  0  0  0  0
    7.2910    7.6060   17.4830 C   0  0  0  0  0  0  0  0  0  0  0  0
    3.8560    6.6260   18.0420 C   0  0  0  0  0  0  0  0  0  0  0  0
  1  2  1  0
  3  2  1  6
  3  4  1  0
  3  6  1  0
  3  8  1  0
  4  5  1  0
  5  6  1  0
  5  7  1  0
  5  9  1  6
  7  8  1  0
  9 10  2  0
  9 11  1  0
 11 12  1  0
 12 13  2  0
 12 23  1  0
 13 14  1  0
 14 15  2  0
 15 16  1  0
 16 17  1  0
 16 23  2  0
 17 18  1  0
 18 19  1  0
 18 22  1  0
 19 20  2  0
 20 21  1  0
 21 22  2  0
M  CHG  1   1   1
M  END
>  <rseq>  (12) 
1

>  <mseq>  (12) 
8

>  <S>  (12) 
-6.8006454

>  <rmsd_refine>  (12) 
0.67830783

>  <E_conf>  (12) 
-52.119709

>  <E_place>  (12) 
-101.60001

>  <E_score1>  (12) 
-13.856152

>  <E_refine>  (12) 
-14.804002

>  <E_score2>  (12) 
-6.8006454

>  <Code>  (12) 
Z3103871141

>  <LOGP>  (12) 
-0.51843834

>  <MW>  (12) 
313.36099

>  <TPSA>  (12) 
95.059998

>  <FSP3>  (12) 
0.4375

>  <HBD>  (12) 
2

>  <HBA>  (12) 
5

>  <ROTB>  (12) 
5

>  <%C>  (12) 
98.142143

>  <PLIF_pronum>  (12) 
1

>  <PLIF_raw>  (12) 
[[1,10,21,1,1,18,18,18,18,18,18,22,22,22,22,22,22,21,21,21,21,21,21,20,20,20,20,20,20,19,19,19,19,19,19],[3848,3751,6105,3848,3849,5127,5130,5132,5122,5123,5125,5127,5130,5132,5122,5123,5125,5127,5130,5132,5122,5123,5125,5127,5130,5132,5122,5123,5125,5127,5130,5132,5122,5123,5125],[268,263,220010,268,268,363,363,363,363,363,363,363,363,363,363,363,363,363,363,363,363,363,363,363,363,363,363,363,363,363,363,363,363,363,363],[1,4,6,7,7,10,10,10,10,10,10,10,10,10,10,10,10,10,10,10,10,10,10,10,10,10,10,10,10,10,10,10,10,10,10],[11.4,3.2,0.8,6.34465732,1.181206542,1e-005,1e-005,1e-005,1e-005,1e-005,1e-005,1e-005,1e-005,1e-005,1e-005,1e-005,1e-005,1e-005,1e-005,1e-005,1e-005,1e-005,1e-005,1e-005,1e-005,1e-005,1e-005,1e-005,1e-005,1e-005,1e-005,1e-005,1e-005,1e-005,1e-005]]

>  <FP:PLIF>  (12) 
8 9 1 2 3 4 5

>  <PLIF_ligidx>  (12) 
[10,10,1,1,[1,1],1,21]

$$$$

     RDKit          3D

 24 26  0  0  1  0  0  0  0  0999 V2000
    8.1290    5.2550   19.9590 C   0  0  0  0  0  0  0  0  0  0  0  0
    7.9260    6.0710   18.7970 N   0  0  0  0  0  0  0  0  0  0  0  0
    8.3810    7.3410   18.6270 C   0  0  0  0  0  0  0  0  0  0  0  0
    7.8240    7.7480   17.4500 C   0  0  0  0  0  0  0  0  0  0  0  0
    7.1790    6.7240   16.8230 N   0  0  0  0  0  0  0  0  0  0  0  0
    7.2140    5.7180   17.6790 C   0  0  0  0  0  0  0  0  0  0  0  0
    6.5040    4.4070   17.5200 C   0  0  0  0  0  0  0  0  0  0  0  0
    5.4050    4.2800   18.4550 O   0  0  0  0  0  0  0  0  0  0  0  0
    4.4380    5.2470   18.4200 C   0  0  0  0  0  0  0  0  0  0  0  0
    3.5770    5.3710   19.5140 C   0  0  0  0  0  0  0  0  0  0  0  0
    2.6590    6.4390   19.6170 C   0  0  0  0  0  0  0  0  0  0  0  0
    2.6320    7.4230   18.6370 C   0  0  0  0  0  0  0  0  0  0  0  0
    3.4300    7.2020   17.5060 C   0  0  0  0  0  0  0  0  0  0  0  0
    4.2740    6.1170   17.3650 C   0  0  0  0  0  0  0  0  0  0  0  0
    1.7810    8.6460   18.5430 C   0  0  0  0  0  0  0  0  0  0  0  0
    1.7950    9.1730   17.4230 O   0  0  0  0  0  0  0  0  0  0  0  0
    0.9940    9.1760   19.5790 N   0  0  0  0  0  0  0  0  0  0  0  0
    1.0750    8.8560   21.0050 C   0  0  0  0  0  0  0  0  0  0  0  0
    0.9440   10.0840   21.9140 C   0  0  0  0  0  0  0  0  0  0  0  0
   -0.1710   11.0400   21.5010 C   0  0  0  0  0  0  0  0  0  0  0  0
   -0.0390   11.4180   20.0180 C   0  0  2  0  0  0  0  0  0  0  0  0
   -1.1640   12.3840   19.6140 C   0  0  0  0  0  0  0  0  0  0  0  0
   -0.9870   12.8730   18.2250 N   0  0  0  0  0  0  0  0  0  0  0  0
   -0.0650   10.1270   19.1990 C   0  0  0  0  0  0  0  0  0  0  0  0
  1  2  1  0
  2  3  1  0
  2  6  1  0
  3  4  2  0
  4  5  1  0
  5  6  2  0
  6  7  1  0
  7  8  1  0
  8  9  1  0
  9 10  2  0
  9 14  1  0
 10 11  1  0
 11 12  2  0
 12 13  1  0
 12 15  1  0
 13 14  2  0
 15 16  2  0
 15 17  1  0
 17 18  1  0
 17 24  1  0
 18 19  1  0
 19 20  1  0
 20 21  1  0
 21 22  1  6
 21 24  1  0
 22 23  1  0
M  CHG  1  23   1
M  END
>  <rseq>  (13) 
1

>  <mseq>  (13) 
9

>  <S>  (13) 
-6.6106019

>  <rmsd_refine>  (13) 
2.1648393

>  <E_conf>  (13) 
-25.090801

>  <E_place>  (13) 
-62.357075

>  <E_score1>  (13) 
-11.540156

>  <E_refine>  (13) 
-9.6265497

>  <E_score2>  (13) 
-6.6106019

>  <Code>  (13) 
Z2440037276

>  <LOGP>  (13) 
0.72974783

>  <MW>  (13) 
328.41599

>  <TPSA>  (13) 
73.379997

>  <FSP3>  (13) 
0.44444445

>  <HBD>  (13) 
1

>  <HBA>  (13) 
4

>  <ROTB>  (13) 
5

>  <%C>  (13) 
78.390862

>  <PLIF_pronum>  (13) 
1

>  <PLIF_raw>  (13) 
[[23,5,16,23,23,9,14,13,12,11,10,2,2,2,2,2,2,6,6,6,6,6,6,5,5,5,5,5,5,4,4,4,4,4,4,3,3,3,3,3,3],[3848,3716,3751,3848,3849,5169,5169,5169,5169,5169,5169,5123,5125,5127,5130,5132,5122,5123,5125,5127,5130,5132,5122,5123,5125,5127,5130,5132,5122,5123,5125,5127,5130,5132,5122,5123,5125,5127,5130,5132,5122],[268,260,263,268,268,366,366,366,366,366,366,363,363,363,363,363,363,363,363,363,363,363,363,363,363,363,363,363,363,363,363,363,363,363,363,363,363,363,363,363,363],[1,2,4,7,7,10,10,10,10,10,10,10,10,10,10,10,10,10,10,10,10,10,10,10,10,10,10,10,10,10,10,10,10,10,10,10,10,10,10,10,10],[13.8,0.7,1.8,4.127022709,0.6369284378,0.5,0.5,0.5,0.5,0.5,0.5,1e-005,1e-005,1e-005,1e-005,1e-005,1e-005,1e-005,1e-005,1e-005,1e-005,1e-005,1e-005,1e-005,1e-005,1e-005,1e-005,1e-005,1e-005,1e-005,1e-005,1e-005,1e-005,1e-005,1e-005,1e-005,1e-005,1e-005,1e-005,1e-005,1e-005]]

>  <FP:PLIF>  (13) 
11 8 9 1 2 3 4 12

>  <PLIF_ligidx>  (13) 
[5,16,16,23,23,[23,23],23,[9,14,13,12,11,10]]

$$$$

     RDKit          3D

 27 30  0  0  0  0  0  0  0  0999 V2000
    3.0150    8.1430   17.1080 O   0  0  0  0  0  0  0  0  0  0  0  0
    3.4450    7.4450   18.0320 C   0  0  0  0  0  0  0  0  0  0  0  0
    2.8680    7.5200   19.2940 N   0  0  0  0  0  0  0  0  0  0  0  0
    1.8510    8.4350   19.7120 C   0  0  0  0  0  0  0  0  0  0  0  0
    1.3530    8.2700   21.0080 C   0  0  0  0  0  0  0  0  0  0  0  0
    0.3860    9.1350   21.5250 C   0  0  0  0  0  0  0  0  0  0  0  0
   -0.0900   10.1980   20.7580 C   0  0  0  0  0  0  0  0  0  0  0  0
    0.3860   10.4000   19.4590 C   0  0  0  0  0  0  0  0  0  0  0  0
   -0.0680   11.5860   18.6320 C   0  0  0  0  0  0  0  0  0  0  0  0
   -1.4250   11.5150   17.9440 N   0  0  0  0  0  0  0  0  0  0  0  0
   -2.5840   11.9410   18.8120 C   0  0  0  0  0  0  0  0  0  0  0  0
   -3.9190   11.4400   18.2620 C   0  0  0  0  0  0  0  0  0  0  0  0
   -3.9430   11.3190   16.7470 C   0  0  0  0  0  0  0  0  0  0  0  0
   -2.8130   10.4420   16.2130 C   0  0  0  0  0  0  0  0  0  0  0  0
   -1.6920   10.2300   17.2220 C   0  0  0  0  0  0  0  0  0  0  0  0
    1.3520    9.5050   18.9470 C   0  0  0  0  0  0  0  0  0  0  0  0
    4.6140    6.3640   17.8250 C   0  0  0  0  0  0  0  0  0  0  0  0
    4.4500    5.8600   16.3730 C   0  0  0  0  0  0  0  0  0  0  0  0
    5.4800    4.8420   15.9140 C   0  0  0  0  0  0  0  0  0  0  0  0
    5.8680    3.8610   17.0040 C   0  0  0  0  0  0  0  0  0  0  0  0
    4.8970    3.7940   18.1760 C   0  0  0  0  0  0  0  0  0  0  0  0
    4.4310    5.1350   18.7580 C   0  0  0  0  0  0  0  0  0  0  0  0
    5.9990    6.8950   17.9210 N   0  0  0  0  0  0  0  0  0  0  0  0
    7.0420    6.5090   18.7200 C   0  0  0  0  0  0  0  0  0  0  0  0
    8.1170    7.1910   18.3940 N   0  0  0  0  0  0  0  0  0  0  0  0
    7.7360    8.0130   17.3730 N   0  0  0  0  0  0  0  0  0  0  0  0
    6.4570    7.8360   17.0760 N   0  0  0  0  0  0  0  0  0  0  0  0
  1  2  2  0
  2  3  1  0
  2 17  1  0
  3  4  1  0
  4  5  2  0
  4 16  1  0
  5  6  1  0
  6  7  2  0
  7  8  1  0
  8  9  1  0
  8 16  2  0
  9 10  1  0
 10 11  1  0
 10 15  1  0
 11 12  1  0
 12 13  1  0
 13 14  1  0
 14 15  1  0
 17 18  1  0
 17 22  1  0
 17 23  1  0
 18 19  1  0
 19 20  1  0
 20 21  1  0
 21 22  1  0
 23 24  1  0
 23 27  1  0
 24 25  2  0
 25 26  1  0
 26 27  2  0
M  CHG  1  10   1
M  END
>  <rseq>  (14) 
1

>  <mseq>  (14) 
13

>  <S>  (14) 
-6.5669775

>  <rmsd_refine>  (14) 
1.5380547

>  <E_conf>  (14) 
-42.107388

>  <E_place>  (14) 
-81.927673

>  <E_score1>  (14) 
-11.658544

>  <E_refine>  (14) 
-5.0578895

>  <E_score2>  (14) 
-6.5669775

>  <Code>  (14) 
Z2473323915

>  <LOGP>  (14) 
3.0841775

>  <MW>  (14) 
368.48499

>  <TPSA>  (14) 
75.940002

>  <FSP3>  (14) 
0.60000002

>  <HBD>  (14) 
1

>  <HBA>  (14) 
5

>  <ROTB>  (14) 
5

>  <%C>  (14) 
99.070396

>  <PLIF_pronum>  (14) 
1

>  <PLIF_raw>  (14) 
[[11,1,10],[3848,3751,3848],[268,263,268],[1,4,7],[0.6,3.1,0.7432632635]]

>  <FP:PLIF>  (14) 
8 9 1 3

>  <PLIF_ligidx>  (14) 
[1,1,11,10]

$$$$

     RDKit          3D

 25 27  0  0  1  0  0  0  0  0999 V2000
    9.0240    8.4680   18.8380 C   0  0  0  0  0  0  0  0  0  0  0  0
    8.1890    7.5170   18.1230 C   0  0  0  0  0  0  0  0  0  0  0  0
    7.3160    7.7200   17.1670 N   0  0  0  0  0  0  0  0  0  0  0  0
    6.9050    6.4390   16.9160 C   0  0  0  0  0  0  0  0  0  0  0  0
    5.8130    6.1200   15.9730 C   0  0  0  0  0  0  0  0  0  0  0  0
    4.8350    5.2420   16.5450 O   0  0  0  0  0  0  0  0  0  0  0  0
    4.1980    5.7380   17.6530 C   0  0  0  0  0  0  0  0  0  0  0  0
    4.1120    4.8920   18.7440 C   0  0  0  0  0  0  0  0  0  0  0  0
    3.2810    5.2500   19.7930 C   0  0  0  0  0  0  0  0  0  0  0  0
    2.5690    6.4570   19.7940 C   0  0  0  0  0  0  0  0  0  0  0  0
    2.6860    7.3550   18.7380 C   0  0  0  0  0  0  0  0  0  0  0  0
    3.5190    6.9610   17.6660 C   0  0  0  0  0  0  0  0  0  0  0  0
    1.9290    8.6460   18.5540 C   0  0  0  0  0  0  0  0  0  0  0  0
    2.1100    9.2040   17.4640 O   0  0  0  0  0  0  0  0  0  0  0  0
    1.0240    9.2040   19.4930 N   0  0  0  0  0  0  0  0  0  0  0  0
    0.8980    8.8130   20.8980 C   0  0  0  0  0  0  0  0  0  0  0  0
    0.0930    9.7160   21.8350 C   0  0  0  0  0  0  0  0  0  0  0  0
    0.5980   11.1490   21.9270 C   0  0  0  0  0  0  0  0  0  0  0  0
    0.0910   12.0540   20.8060 C   0  0  0  0  0  0  0  0  0  0  0  0
    0.6010   11.6720   19.4080 C   0  0  2  0  0  0  0  0  0  0  0  0
    0.2050   12.7420   18.3750 C   0  0  0  0  0  0  0  0  0  0  0  0
   -1.2450   12.7440   18.0780 N   0  0  0  0  0  0  0  0  0  0  0  0
    0.1360   10.2670   18.9940 C   0  0  0  0  0  0  0  0  0  0  0  0
    7.5060    5.4880   17.6420 N   0  0  0  0  0  0  0  0  0  0  0  0
    8.3430    6.2140   18.4750 O   0  0  0  0  0  0  0  0  0  0  0  0
  1  2  1  0
  2  3  2  0
  2 25  1  0
  3  4  1  0
  4  5  1  0
  4 24  2  0
  5  6  1  0
  6  7  1  0
  7  8  2  0
  7 12  1  0
  8  9  1  0
  9 10  2  0
 10 11  1  0
 11 12  2  0
 11 13  1  0
 13 14  2  0
 13 15  1  0
 15 16  1  0
 15 23  1  0
 16 17  1  0
 17 18  1  0
 18 19  1  0
 19 20  1  0
 20 21  1  6
 20 23  1  0
 21 22  1  0
 24 25  1  0
M  CHG  1  22   1
M  END
>  <rseq>  (15) 
1

>  <mseq>  (15) 
16

>  <S>  (15) 
-6.0848465

>  <rmsd_refine>  (15) 
1.1033251

>  <E_conf>  (15) 
-8.1626949

>  <E_place>  (15) 
-74.272003

>  <E_score1>  (15) 
-11.205618

>  <E_refine>  (15) 
-5.3265233

>  <E_score2>  (15) 
-6.0848465

>  <Code>  (15) 
Z3144506726

>  <LOGP>  (15) 
1.3787732

>  <MW>  (15) 
344.41501

>  <TPSA>  (15) 
94.480003

>  <FSP3>  (15) 
0.5

>  <HBD>  (15) 
1

>  <HBA>  (15) 
5

>  <ROTB>  (15) 
5

>  <%C>  (15) 
99.5186

>  <PLIF_pronum>  (15) 
1

>  <PLIF_raw>  (15) 
[[1,21,22,14,22,22,2,2,2,2,2,2,25,25,25,25,25,25,24,24,24,24,24,24,4,4,4,4,4,4,3,3,3,3,3,3],[5135,3770,3848,3751,3848,3849,5122,5132,5130,5127,5125,5123,5122,5132,5130,5127,5125,5123,5122,5132,5130,5127,5125,5123,5122,5132,5130,5127,5125,5123,5122,5132,5130,5127,5125,5123],[363,263,268,263,268,268,363,363,363,363,363,363,363,363,363,363,363,363,363,363,363,363,363,363,363,363,363,363,363,363,363,363,363,363,363,363],[3,3,1,4,7,7,10,10,10,10,10,10,10,10,10,10,10,10,10,10,10,10,10,10,10,10,10,10,10,10,10,10,10,10,10,10],[0.7,0.8,8.3,2.6,4.806942382,1.102104164,1e-005,1e-005,1e-005,1e-005,1e-005,1e-005,1e-005,1e-005,1e-005,1e-005,1e-005,1e-005,1e-005,1e-005,1e-005,1e-005,1e-005,1e-005,1e-005,1e-005,1e-005,1e-005,1e-005,1e-005,1e-005,1e-005,1e-005,1e-005,1e-005,1e-005]]

>  <FP:PLIF>  (15) 
14 8 9 1 2 3 4 15

>  <PLIF_ligidx>  (15) 
[21,14,14,22,22,[22,22],22,1]

$$$$

     RDKit          3D

 26 29  0  0  0  0  0  0  0  0999 V2000
    3.0170    8.0980   17.1140 O   0  0  0  0  0  0  0  0  0  0  0  0
    3.4030    7.4150   18.0680 C   0  0  0  0  0  0  0  0  0  0  0  0
    2.8120    7.5500   19.3200 N   0  0  0  0  0  0  0  0  0  0  0  0
    1.8120    8.4920   19.7080 C   0  0  0  0  0  0  0  0  0  0  0  0
    1.3160    8.3700   21.0110 C   0  0  0  0  0  0  0  0  0  0  0  0
    0.3780    9.2740   21.5120 C   0  0  0  0  0  0  0  0  0  0  0  0
   -0.0670   10.3310   20.7210 C   0  0  0  0  0  0  0  0  0  0  0  0
    0.4020   10.4850   19.4110 C   0  0  0  0  0  0  0  0  0  0  0  0
   -0.0090   11.6770   18.5730 C   0  0  0  0  0  0  0  0  0  0  0  0
   -1.3640   11.6750   17.9050 N   0  0  0  0  0  0  0  0  0  0  0  0
   -2.5610   11.9130   18.7920 C   0  0  0  0  0  0  0  0  0  0  0  0
   -3.7070   11.3370   17.9880 C   0  0  0  0  0  0  0  0  0  0  0  0
   -3.0920   10.0800   17.4050 C   0  0  0  0  0  0  0  0  0  0  0  0
   -1.6940   10.5100   16.9990 C   0  0  0  0  0  0  0  0  0  0  0  0
    1.3370    9.5500   18.9140 C   0  0  0  0  0  0  0  0  0  0  0  0
    4.5500    6.2930   17.9420 C   0  0  0  0  0  0  0  0  0  0  0  0
    4.3830    5.5980   16.5700 C   0  0  0  0  0  0  0  0  0  0  0  0
    5.3450    4.4290   16.3440 C   0  0  0  0  0  0  0  0  0  0  0  0
    5.9010    3.9420   17.5590 O   0  0  0  0  0  0  0  0  0  0  0  0
    4.9270    3.8200   18.5840 C   0  0  0  0  0  0  0  0  0  0  0  0
    4.3790    5.1790   19.0130 C   0  0  0  0  0  0  0  0  0  0  0  0
    5.9400    6.8270   17.9450 N   0  0  0  0  0  0  0  0  0  0  0  0
    6.5750    7.5490   16.9820 C   0  0  0  0  0  0  0  0  0  0  0  0
    7.8190    7.7740   17.3310 N   0  0  0  0  0  0  0  0  0  0  0  0
    7.9790    7.1250   18.5250 N   0  0  0  0  0  0  0  0  0  0  0  0
    6.8440    6.5450   18.9070 N   0  0  0  0  0  0  0  0  0  0  0  0
  1  2  2  0
  2  3  1  0
  2 16  1  0
  3  4  1  0
  4  5  2  0
  4 15  1  0
  5  6  1  0
  6  7  2  0
  7  8  1  0
  8  9  1  0
  8 15  2  0
  9 10  1  0
 10 11  1  0
 10 14  1  0
 11 12  1  0
 12 13  1  0
 13 14  1  0
 16 17  1  0
 16 21  1  0
 16 22  1  0
 17 18  1  0
 18 19  1  0
 19 20  1  0
 20 21  1  0
 22 23  1  0
 22 26  1  0
 23 24  2  0
 24 25  1  0
 25 26  2  0
M  CHG  1  10   1
M  END
>  <rseq>  (16) 
1

>  <mseq>  (16) 
22

>  <S>  (16) 
-6.0390172

>  <rmsd_refine>  (16) 
1.5184354

>  <E_conf>  (16) 
-67.934502

>  <E_place>  (16) 
-91.888115

>  <E_score1>  (16) 
-11.602575

>  <E_refine>  (16) 
-3.1516657

>  <E_score2>  (16) 
-6.0390172

>  <Code>  (16) 
Z2621693769

>  <LOGP>  (16) 
0.8015244

>  <MW>  (16) 
356.42999

>  <TPSA>  (16) 
85.169998

>  <FSP3>  (16) 
0.55555558

>  <HBD>  (16) 
1

>  <HBA>  (16) 
6

>  <ROTB>  (16) 
5

>  <%C>  (16) 
98.779373

>  <PLIF_pronum>  (16) 
1

>  <PLIF_raw>  (16) 
[[1,24,10],[3751,3716,3848],[263,260,268],[4,2,7],[3,1,1.050688366]]

>  <FP:PLIF>  (16) 
11 8 9 3

>  <PLIF_ligidx>  (16) 
[24,1,1,10]

$$$$

     RDKit          3D

 24 26  0  0  0  0  0  0  0  0999 V2000
    4.4960    5.0990   18.9200 C   0  0  0  0  0  0  0  0  0  0  0  0
    4.6180    6.2560   17.8980 C   0  0  0  0  0  0  0  0  0  0  0  0
    4.4820    5.6290   16.5010 C   0  0  0  0  0  0  0  0  0  0  0  0
    6.0030    6.8000   17.9320 N   0  0  0  0  0  0  0  0  0  0  0  0
    7.0830    6.4010   18.6750 C   0  0  0  0  0  0  0  0  0  0  0  0
    8.1320    7.1150   18.3340 N   0  0  0  0  0  0  0  0  0  0  0  0
    7.6990    7.9600   17.3510 N   0  0  0  0  0  0  0  0  0  0  0  0
    6.4130    7.7660   17.0910 N   0  0  0  0  0  0  0  0  0  0  0  0
    3.4450    7.3400   18.0800 C   0  0  0  0  0  0  0  0  0  0  0  0
    3.0250    8.0700   17.1740 O   0  0  0  0  0  0  0  0  0  0  0  0
    2.8800    7.3850   19.3520 N   0  0  0  0  0  0  0  0  0  0  0  0
    1.8850    8.2850   19.8220 C   0  0  0  0  0  0  0  0  0  0  0  0
    1.4700    8.1120   21.1470 C   0  0  0  0  0  0  0  0  0  0  0  0
    0.5290    8.9570   21.7340 C   0  0  0  0  0  0  0  0  0  0  0  0
   -0.0170    9.9960   20.9940 C   0  0  0  0  0  0  0  0  0  0  0  0
    0.3790   10.1940   19.6660 C   0  0  0  0  0  0  0  0  0  0  0  0
   -0.2350   11.3130   18.8720 C   0  0  0  0  0  0  0  0  0  0  0  0
   -1.6770   11.0350   18.4870 N   0  0  0  0  0  0  0  0  0  0  0  0
   -1.7830   10.3280   17.1570 C   0  0  0  0  0  0  0  0  0  0  0  0
   -3.2320    9.9560   16.9020 C   0  0  0  0  0  0  0  0  0  0  0  0
   -4.1230   11.1930   16.9190 C   0  0  0  0  0  0  0  0  0  0  0  0
   -3.9490   11.9780   18.2120 C   0  0  0  0  0  0  0  0  0  0  0  0
   -2.4890   12.3040   18.4820 C   0  0  0  0  0  0  0  0  0  0  0  0
    1.3290    9.3360   19.0850 C   0  0  0  0  0  0  0  0  0  0  0  0
  1  2  1  0
  2  3  1  0
  2  4  1  0
  2  9  1  0
  4  5  1  0
  4  8  1  0
  5  6  2  0
  6  7  1  0
  7  8  2  0
  9 10  2  0
  9 11  1  0
 11 12  1  0
 12 13  2  0
 12 24  1  0
 13 14  1  0
 14 15  2  0
 15 16  1  0
 16 17  1  0
 16 24  2  0
 17 18  1  0
 18 19  1  0
 18 23  1  0
 19 20  1  0
 20 21  1  0
 21 22  1  0
 22 23  1  0
M  CHG  1  18   1
M  END
>  <rseq>  (17) 
1

>  <mseq>  (17) 
23

>  <S>  (17) 
-6.0254068

>  <rmsd_refine>  (17) 
1.2123342

>  <E_conf>  (17) 
-62.14362

>  <E_place>  (17) 
-97.025543

>  <E_score1>  (17) 
-11.148508

>  <E_refine>  (17) 
-6.2347565

>  <E_score2>  (17) 
-6.0254068

>  <Code>  (17) 
Z3295407853

>  <LOGP>  (17) 
2.05829

>  <MW>  (17) 
328.42001

>  <TPSA>  (17) 
75.940002

>  <FSP3>  (17) 
0.52941179

>  <HBD>  (17) 
1

>  <HBA>  (17) 
5

>  <ROTB>  (17) 
5

>  <%C>  (17) 
99.070755

>  <PLIF_pronum>  (17) 
1

>  <PLIF_raw>  (17) 
[10,3751,263,4,2.5]

>  <FP:PLIF>  (17) 
8 9

>  <PLIF_ligidx>  (17) 
[10,10]

$$$$

     RDKit          3D

 26 29  0  0  0  0  0  0  0  0999 V2000
    3.0370    8.1240   17.1790 O   0  0  0  0  0  0  0  0  0  0  0  0
    3.4730    7.3880   18.0730 C   0  0  0  0  0  0  0  0  0  0  0  0
    2.9070    7.3990   19.3430 N   0  0  0  0  0  0  0  0  0  0  0  0
    1.8840    8.2730   19.8110 C   0  0  0  0  0  0  0  0  0  0  0  0
    1.4400    8.0750   21.1210 C   0  0  0  0  0  0  0  0  0  0  0  0
    0.4580    8.8890   21.6890 C   0  0  0  0  0  0  0  0  0  0  0  0
   -0.0980    9.9240   20.9500 C   0  0  0  0  0  0  0  0  0  0  0  0
    0.3320   10.1540   19.6400 C   0  0  0  0  0  0  0  0  0  0  0  0
   -0.2190   11.3160   18.8570 C   0  0  0  0  0  0  0  0  0  0  0  0
    0.2800   12.6470   19.3570 N   0  0  0  0  0  0  0  0  0  0  0  0
   -0.4240   13.8230   18.7250 C   0  0  0  0  0  0  0  0  0  0  0  0
    0.5640   14.9510   18.9220 C   0  0  0  0  0  0  0  0  0  0  0  0
    1.8990   14.2900   18.6420 C   0  0  0  0  0  0  0  0  0  0  0  0
    1.7700   12.8830   19.2000 C   0  0  0  0  0  0  0  0  0  0  0  0
    1.3210    9.3250   19.0790 C   0  0  0  0  0  0  0  0  0  0  0  0
    4.6500    6.3210   17.8330 C   0  0  0  0  0  0  0  0  0  0  0  0
    4.4380    5.8220   16.3840 C   0  0  0  0  0  0  0  0  0  0  0  0
    5.3020    4.6450   15.9680 C   0  0  0  0  0  0  0  0  0  0  0  0
    5.0210    3.4770   16.8890 C   0  0  0  0  0  0  0  0  0  0  0  0
    5.2860    3.8480   18.3420 C   0  0  0  0  0  0  0  0  0  0  0  0
    4.5250    5.1000   18.7900 C   0  0  0  0  0  0  0  0  0  0  0  0
    6.0230    6.8800   17.8930 N   0  0  0  0  0  0  0  0  0  0  0  0
    7.0670    6.5770   18.7240 C   0  0  0  0  0  0  0  0  0  0  0  0
    8.1280    7.2600   18.3600 N   0  0  0  0  0  0  0  0  0  0  0  0
    7.7370    8.0000   17.2830 N   0  0  0  0  0  0  0  0  0  0  0  0
    6.4660    7.7710   16.9870 N   0  0  0  0  0  0  0  0  0  0  0  0
  1  2  2  0
  2  3  1  0
  2 16  1  0
  3  4  1  0
  4  5  2  0
  4 15  1  0
  5  6  1  0
  6  7  2  0
  7  8  1  0
  8  9  1  0
  8 15  2  0
  9 10  1  0
 10 11  1  0
 10 14  1  0
 11 12  1  0
 12 13  1  0
 13 14  1  0
 16 17  1  0
 16 21  1  0
 16 22  1  0
 17 18  1  0
 18 19  1  0
 19 20  1  0
 20 21  1  0
 22 23  1  0
 22 26  1  0
 23 24  2  0
 24 25  1  0
 25 26  2  0
M  CHG  1  10   1
M  END
>  <rseq>  (18) 
1

>  <mseq>  (18) 
7

>  <S>  (18) 
-5.9346328

>  <rmsd_refine>  (18) 
1.5953637

>  <E_conf>  (18) 
-55.28458

>  <E_place>  (18) 
-101.0469

>  <E_score1>  (18) 
-10.620876

>  <E_refine>  (18) 
-4.3103719

>  <E_score2>  (18) 
-5.9346328

>  <Code>  (18) 
Z2473316968

>  <LOGP>  (18) 
2.6396089

>  <MW>  (18) 
354.45801

>  <TPSA>  (18) 
75.940002

>  <FSP3>  (18) 
0.57894737

>  <HBD>  (18) 
1

>  <HBA>  (18) 
5

>  <ROTB>  (18) 
5

>  <%C>  (18) 
98.783409

>  <PLIF_pronum>  (18) 
1

>  <PLIF_raw>  (18) 
[[1,25],[3751,3716],[263,260],[4,2],[2.6,0.5]]

>  <FP:PLIF>  (18) 
11 8 9

>  <PLIF_ligidx>  (18) 
[25,1,1]

$$$$

     RDKit          3D

 23 25  0  0  0  0  0  0  0  0999 V2000
    4.4450    5.1570   18.9770 C   0  0  0  0  0  0  0  0  0  0  0  0
    4.5920    6.2890   17.9320 C   0  0  0  0  0  0  0  0  0  0  0  0
    4.4570    5.6360   16.5450 C   0  0  0  0  0  0  0  0  0  0  0  0
    5.9870    6.8120   17.9540 N   0  0  0  0  0  0  0  0  0  0  0  0
    7.0670    6.3930   18.6860 C   0  0  0  0  0  0  0  0  0  0  0  0
    8.1250    7.0900   18.3370 N   0  0  0  0  0  0  0  0  0  0  0  0
    7.6970    7.9440   17.3590 N   0  0  0  0  0  0  0  0  0  0  0  0
    6.4060    7.7730   17.1110 N   0  0  0  0  0  0  0  0  0  0  0  0
    3.4260    7.3850   18.0840 C   0  0  0  0  0  0  0  0  0  0  0  0
    3.0200    8.0900   17.1540 O   0  0  0  0  0  0  0  0  0  0  0  0
    2.8440    7.4690   19.3470 N   0  0  0  0  0  0  0  0  0  0  0  0
    1.8100    8.3560   19.7700 C   0  0  0  0  0  0  0  0  0  0  0  0
    1.3920    8.2310   21.1010 C   0  0  0  0  0  0  0  0  0  0  0  0
    0.3970    9.0510   21.6310 C   0  0  0  0  0  0  0  0  0  0  0  0
   -0.2050   10.0150   20.8310 C   0  0  0  0  0  0  0  0  0  0  0  0
    0.1870   10.1650   19.4950 C   0  0  0  0  0  0  0  0  0  0  0  0
   -0.4840   11.2060   18.6340 C   0  0  0  0  0  0  0  0  0  0  0  0
   -1.9260   10.8950   18.3090 N   0  0  0  0  0  0  0  0  0  0  0  0
   -2.1470    9.8260   17.2590 C   0  0  0  0  0  0  0  0  0  0  0  0
   -3.0100   10.4740   16.1920 C   0  0  0  0  0  0  0  0  0  0  0  0
   -3.7830   11.5180   16.9670 C   0  0  0  0  0  0  0  0  0  0  0  0
   -2.7010   12.1090   17.8450 C   0  0  0  0  0  0  0  0  0  0  0  0
    1.2010    9.3370   18.9750 C   0  0  0  0  0  0  0  0  0  0  0  0
  1  2  1  0
  2  3  1  0
  2  4  1  0
  2  9  1  0
  4  5  1  0
  4  8  1  0
  5  6  2  0
  6  7  1  0
  7  8  2  0
  9 10  2  0
  9 11  1  0
 11 12  1  0
 12 13  2  0
 12 23  1  0
 13 14  1  0
 14 15  2  0
 15 16  1  0
 16 17  1  0
 16 23  2  0
 17 18  1  0
 18 19  1  0
 18 22  1  0
 19 20  1  0
 20 21  1  0
 21 22  1  0
M  CHG  1  18   1
M  END
>  <rseq>  (19) 
1

>  <mseq>  (19) 
14

>  <S>  (19) 
-5.8931327

>  <rmsd_refine>  (19) 
0.71932888

>  <E_conf>  (19) 
-58.496258

>  <E_place>  (19) 
-100.42548

>  <E_score1>  (19) 
-10.953717

>  <E_refine>  (19) 
-6.6669154

>  <E_score2>  (19) 
-5.8931327

>  <Code>  (19) 
Z3295389817

>  <LOGP>  (19) 
1.6137213

>  <MW>  (19) 
314.39301

>  <TPSA>  (19) 
75.940002

>  <FSP3>  (19) 
0.5

>  <HBD>  (19) 
1

>  <HBA>  (19) 
5

>  <ROTB>  (19) 
5

>  <%C>  (19) 
98.783875

>  <PLIF_pronum>  (19) 
1

>  <PLIF_raw>  (19) 
[10,3751,263,4,2.7]

>  <FP:PLIF>  (19) 
8 9

>  <PLIF_ligidx>  (19) 
[10,10]

$$$$

     RDKit          3D

 24 27  0  0  0  0  0  0  0  0999 V2000
    3.0310    8.0780   17.1610 O   0  0  0  0  0  0  0  0  0  0  0  0
    3.4530    7.3800   18.0850 C   0  0  0  0  0  0  0  0  0  0  0  0
    2.8880    7.3810   19.3530 N   0  0  0  0  0  0  0  0  0  0  0  0
    1.8810    8.2620   19.8310 C   0  0  0  0  0  0  0  0  0  0  0  0
    1.4670    8.0770   21.1530 C   0  0  0  0  0  0  0  0  0  0  0  0
    0.5230    8.9160   21.7440 C   0  0  0  0  0  0  0  0  0  0  0  0
   -0.0270    9.9580   21.0120 C   0  0  0  0  0  0  0  0  0  0  0  0
    0.3690   10.1680   19.6860 C   0  0  0  0  0  0  0  0  0  0  0  0
   -0.2430   11.2960   18.9020 C   0  0  0  0  0  0  0  0  0  0  0  0
   -1.6830   11.0230   18.5040 N   0  0  0  0  0  0  0  0  0  0  0  0
   -1.7800   10.3320   17.1650 C   0  0  0  0  0  0  0  0  0  0  0  0
   -3.2280    9.9630   16.8960 C   0  0  0  0  0  0  0  0  0  0  0  0
   -4.1190   11.2000   16.9220 C   0  0  0  0  0  0  0  0  0  0  0  0
   -3.9540   11.9700   18.2240 C   0  0  0  0  0  0  0  0  0  0  0  0
   -2.4960   12.2920   18.5110 C   0  0  0  0  0  0  0  0  0  0  0  0
    1.3220    9.3180   19.1020 C   0  0  0  0  0  0  0  0  0  0  0  0
    4.6340    6.3760   17.9090 C   0  0  0  0  0  0  0  0  0  0  0  0
    4.3640    5.1960   16.9880 C   0  0  0  0  0  0  0  0  0  0  0  0
    4.4160    4.9560   18.4600 C   0  0  0  0  0  0  0  0  0  0  0  0
    5.9880    6.8790   17.8570 N   0  0  0  0  0  0  0  0  0  0  0  0
    7.0000    6.5400   18.7120 C   0  0  0  0  0  0  0  0  0  0  0  0
    8.0980    7.1530   18.3310 N   0  0  0  0  0  0  0  0  0  0  0  0
    7.7540    7.8620   17.2100 N   0  0  0  0  0  0  0  0  0  0  0  0
    6.4760    7.6790   16.9020 N   0  0  0  0  0  0  0  0  0  0  0  0
  1  2  2  0
  2  3  1  0
  2 17  1  0
  3  4  1  0
  4  5  2  0
  4 16  1  0
  5  6  1  0
  6  7  2  0
  7  8  1  0
  8  9  1  0
  8 16  2  0
  9 10  1  0
 10 11  1  0
 10 15  1  0
 11 12  1  0
 12 13  1  0
 13 14  1  0
 14 15  1  0
 17 18  1  0
 17 19  1  0
 17 20  1  0
 18 19  1  0
 20 21  1  0
 20 24  1  0
 21 22  2  0
 22 23  1  0
 23 24  2  0
M  CHG  1  10   1
M  END
>  <rseq>  (20) 
1

>  <mseq>  (20) 
17

>  <S>  (20) 
-5.6706085

>  <rmsd_refine>  (20) 
0.77300024

>  <E_conf>  (20) 
-61.163338

>  <E_place>  (20) 
-118.47044

>  <E_score1>  (20) 
-11.088324

>  <E_refine>  (20) 
-4.6047521

>  <E_score2>  (20) 
-5.6706085

>  <Code>  (20) 
Z2621742909

>  <LOGP>  (20) 
1.7504715

>  <MW>  (20) 
326.40399

>  <TPSA>  (20) 
75.940002

>  <FSP3>  (20) 
0.52941179

>  <HBD>  (20) 
1

>  <HBA>  (20) 
5

>  <ROTB>  (20) 
5

>  <%C>  (20) 
99.068192

>  <PLIF_pronum>  (20) 
1

>  <PLIF_raw>  (20) 
[[1,23],[3751,3716],[263,260],[4,2],[2.6,0.9]]

>  <FP:PLIF>  (20) 
11 8 9

>  <PLIF_ligidx>  (20) 
[23,1,1]

$$$$

     RDKit          3D

 24 26  0  0  1  0  0  0  0  0999 V2000
    9.0370    8.4810   18.8440 C   0  0  0  0  0  0  0  0  0  0  0  0
    8.2010    7.5180   18.1480 C   0  0  0  0  0  0  0  0  0  0  0  0
    7.3100    7.7050   17.2060 N   0  0  0  0  0  0  0  0  0  0  0  0
    6.8880    6.4210   16.9930 C   0  0  0  0  0  0  0  0  0  0  0  0
    5.7640    6.0830   16.0980 C   0  0  0  0  0  0  0  0  0  0  0  0
    4.8000    5.2430   16.7430 O   0  0  0  0  0  0  0  0  0  0  0  0
    4.1410    5.8070   17.8040 C   0  0  0  0  0  0  0  0  0  0  0  0
    3.9840    5.0060   18.9230 C   0  0  0  0  0  0  0  0  0  0  0  0
    3.0860    5.4010   19.9050 C   0  0  0  0  0  0  0  0  0  0  0  0
    2.3770    6.6010   19.8150 C   0  0  0  0  0  0  0  0  0  0  0  0
    2.6050    7.4720   18.7550 C   0  0  0  0  0  0  0  0  0  0  0  0
    3.4870    7.0400   17.7420 C   0  0  0  0  0  0  0  0  0  0  0  0
    1.8570    8.7460   18.5080 C   0  0  0  0  0  0  0  0  0  0  0  0
    1.9660    9.2000   17.3630 O   0  0  0  0  0  0  0  0  0  0  0  0
    1.0230    9.3690   19.4600 N   0  0  0  0  0  0  0  0  0  0  0  0
    1.0430    9.1790   20.9150 C   0  0  0  0  0  0  0  0  0  0  0  0
    0.8820   10.4800   21.7040 C   0  0  0  0  0  0  0  0  0  0  0  0
   -0.2560   11.3480   21.1870 C   0  0  0  0  0  0  0  0  0  0  0  0
   -0.0800   11.6110   19.6850 C   0  0  2  0  0  0  0  0  0  0  0  0
   -1.2260   12.4910   19.1750 C   0  0  0  0  0  0  0  0  0  0  0  0
   -1.0050   12.8780   17.7650 N   0  0  0  0  0  0  0  0  0  0  0  0
   -0.0210   10.2690   18.9520 C   0  0  0  0  0  0  0  0  0  0  0  0
    7.5040    5.4820   17.7230 N   0  0  0  0  0  0  0  0  0  0  0  0
    8.3620    6.2220   18.5200 O   0  0  0  0  0  0  0  0  0  0  0  0
  1  2  1  0
  2  3  2  0
  2 24  1  0
  3  4  1  0
  4  5  1  0
  4 23  2  0
  5  6  1  0
  6  7  1  0
  7  8  2  0
  7 12  1  0
  8  9  1  0
  9 10  2  0
 10 11  1  0
 11 12  2  0
 11 13  1  0
 13 14  2  0
 13 15  1  0
 15 16  1  0
 15 22  1  0
 16 17  1  0
 17 18  1  0
 18 19  1  0
 19 20  1  6
 19 22  1  0
 20 21  1  0
 23 24  1  0
M  CHG  1  21   1
M  END
>  <rseq>  (21) 
1

>  <mseq>  (21) 
5

>  <S>  (21) 
-5.6690607

>  <rmsd_refine>  (21) 
1.4365431

>  <E_conf>  (21) 
-16.212223

>  <E_place>  (21) 
-71.223228

>  <E_score1>  (21) 
-11.482623

>  <E_refine>  (21) 
-4.4635267

>  <E_score2>  (21) 
-5.6690607

>  <Code>  (21) 
Z2440040050

>  <LOGP>  (21) 
0.958534

>  <MW>  (21) 
330.388

>  <TPSA>  (21) 
94.480003

>  <FSP3>  (21) 
0.47058824

>  <HBD>  (21) 
1

>  <HBA>  (21) 
5

>  <ROTB>  (21) 
5

>  <%C>  (21) 
99.485489

>  <PLIF_pronum>  (21) 
1

>  <PLIF_raw>  (21) 
[[1,21,21,14,21,21,2,2,2,2,2,2,24,24,24,24,24,24,23,23,23,23,23,23,4,4,4,4,4,4,3,3,3,3,3,3],[5135,3770,3848,3751,3848,3849,5122,5132,5130,5127,5125,5123,5122,5132,5130,5127,5125,5123,5122,5132,5130,5127,5125,5123,5122,5132,5130,5127,5125,5123,5122,5132,5130,5127,5125,5123],[363,263,268,263,268,268,363,363,363,363,363,363,363,363,363,363,363,363,363,363,363,363,363,363,363,363,363,363,363,363,363,363,363,363,363,363],[3,3,1,4,7,7,10,10,10,10,10,10,10,10,10,10,10,10,10,10,10,10,10,10,10,10,10,10,10,10,10,10,10,10,10,10],[0.7,0.5,14.8,2.8,4.909851303,1.57194454,1e-005,1e-005,1e-005,1e-005,1e-005,1e-005,1e-005,1e-005,1e-005,1e-005,1e-005,1e-005,1e-005,1e-005,1e-005,1e-005,1e-005,1e-005,1e-005,1e-005,1e-005,1e-005,1e-005,1e-005,1e-005,1e-005,1e-005,1e-005,1e-005,1e-005]]

>  <FP:PLIF>  (21) 
14 8 9 1 2 3 4 15

>  <PLIF_ligidx>  (21) 
[21,14,14,21,21,[21,21],21,1]

$$$$

     RDKit          3D

 23 26  0  0  0  0  0  0  0  0999 V2000
    3.0300    8.0890   17.1510 O   0  0  0  0  0  0  0  0  0  0  0  0
    3.4370    7.4170   18.1000 C   0  0  0  0  0  0  0  0  0  0  0  0
    2.8510    7.4580   19.3600 N   0  0  0  0  0  0  0  0  0  0  0  0
    1.8330    8.3550   19.7930 C   0  0  0  0  0  0  0  0  0  0  0  0
    1.3920    8.2190   21.1140 C   0  0  0  0  0  0  0  0  0  0  0  0
    0.4280    9.0760   21.6470 C   0  0  0  0  0  0  0  0  0  0  0  0
   -0.1120   10.0910   20.8640 C   0  0  0  0  0  0  0  0  0  0  0  0
    0.3070   10.2530   19.5390 C   0  0  0  0  0  0  0  0  0  0  0  0
   -0.2810   11.3430   18.6780 C   0  0  0  0  0  0  0  0  0  0  0  0
   -1.7310   11.1090   18.3350 N   0  0  0  0  0  0  0  0  0  0  0  0
   -2.0600   11.2090   16.8680 C   0  0  0  0  0  0  0  0  0  0  0  0
   -3.5750   11.2240   16.8640 C   0  0  0  0  0  0  0  0  0  0  0  0
   -3.9860   11.8500   18.1930 C   0  0  0  0  0  0  0  0  0  0  0  0
   -2.6980   12.0760   18.9670 C   0  0  0  0  0  0  0  0  0  0  0  0
    1.2790    9.3810   19.0140 C   0  0  0  0  0  0  0  0  0  0  0  0
    4.6130    6.4000   17.9560 C   0  0  0  0  0  0  0  0  0  0  0  0
    4.3690    4.9950   18.5310 C   0  0  0  0  0  0  0  0  0  0  0  0
    4.3400    5.2040   17.0530 C   0  0  0  0  0  0  0  0  0  0  0  0
    5.9750    6.8870   17.8870 N   0  0  0  0  0  0  0  0  0  0  0  0
    6.9950    6.5320   18.7250 C   0  0  0  0  0  0  0  0  0  0  0  0
    8.0960    7.1320   18.3300 N   0  0  0  0  0  0  0  0  0  0  0  0
    7.7460    7.8480   17.2160 N   0  0  0  0  0  0  0  0  0  0  0  0
    6.4610    7.6820   16.9250 N   0  0  0  0  0  0  0  0  0  0  0  0
  1  2  2  0
  2  3  1  0
  2 16  1  0
  3  4  1  0
  4  5  2  0
  4 15  1  0
  5  6  1  0
  6  7  2  0
  7  8  1  0
  8  9  1  0
  8 15  2  0
  9 10  1  0
 10 11  1  0
 10 14  1  0
 11 12  1  0
 12 13  1  0
 13 14  1  0
 16 17  1  0
 16 18  1  0
 16 19  1  0
 17 18  1  0
 19 20  1  0
 19 23  1  0
 20 21  2  0
 21 22  1  0
 22 23  2  0
M  CHG  1  10   1
M  END
>  <rseq>  (22) 
1

>  <mseq>  (22) 
6

>  <S>  (22) 
-5.5617847

>  <rmsd_refine>  (22) 
1.0419073

>  <E_conf>  (22) 
-53.738998

>  <E_place>  (22) 
-94.025551

>  <E_score1>  (22) 
-10.932321

>  <E_refine>  (22) 
-5.905128

>  <E_score2>  (22) 
-5.5617847

>  <Code>  (22) 
Z2621693915

>  <LOGP>  (22) 
1.3059028

>  <MW>  (22) 
312.37701

>  <TPSA>  (22) 
75.940002

>  <FSP3>  (22) 
0.5

>  <HBD>  (22) 
1

>  <HBA>  (22) 
5

>  <ROTB>  (22) 
5

>  <%C>  (22) 
98.780518

>  <PLIF_pronum>  (22) 
1

>  <PLIF_raw>  (22) 
[[14,1,22],[3848,3751,3716],[268,263,260],[1,4,2],[0.6,2.7,1]]

>  <FP:PLIF>  (22) 
11 8 9 1

>  <PLIF_ligidx>  (22) 
[22,1,1,14]

$$$$
